<edges>
    <edge id="north_center" from="north" to="center" numLanes="2" speed="13.89"/> <!-- 50km/h -->
    <edge id="center_north" from="center" to="north" numLanes="2" speed="13.89"/>
    <edge id="east_center" from="east" to="center" numLanes="2" speed="13.89"/>
    <edge id="center_east" from="center" to="east" numLanes="2" speed="13.89"/>
    <edge id="south_center" from="south" to="center" numLanes="2" speed="13.89"/>
    <edge id="center_south" from="center" to="south" numLanes="2" speed="13.89"/>
    <edge id="west_center" from="west" to="center" numLanes="2" speed="13.89"/>
    <edge id="center_west" from="center" to="west" numLanes="2" speed="13.89"/>
</edges>
