<configuration>
    <input>
        <net-file value="./network.net.xml"/>
        <route-files value="./traffic_routes.rou.xml"/>
    </input>
    <time>
        <begin value="0"/>
        <end value="3600"/>
    </time>
</configuration>
