<?xml version="1.0" encoding="UTF-8"?>

<!-- generated on 2023-05-03 21:55:21 by Eclipse SUMO netedit Version 1.17.0
-->

<additional xmlns:xsi="http://www.w3.org/2001/XMLSchema-instance" xsi:noNamespaceSchemaLocation="http://sumo.dlr.de/xsd/additional_file.xsd">
</additional>
