<configuration>
  <input>
    <net-file value="cologne3.net.xml"/>
	<route-files value="cologne3.rou.xml"/>
  </input>
  <time>
    <begin value="0"/>
    <end value="3600"/>
  </time>
</configuration>
