<?xml version='1.0' encoding='utf-8'?>
<routes>
    <vType id="pkw" vClass="passenger" speedDev="0.1" length="4.3" minGap="1.5" />
    <vehicle id="99469291" type="pkw" depart="4">
        <route edges="4999334 -241660955#5 -241660955#3 4145590#0" />
    </vehicle>
    <vehicle id="66273183" type="pkw" depart="5">
        <route edges="41910186 -241660955#3 -200818108#1 -31864804" />
    </vehicle>
    <vehicle id="24083582" type="pkw" depart="6">
        <route edges="31864804 200818108#0 241660955#0 241660955#4 241660955#6 -241660955#6 -4999334" />
    </vehicle>
    <vehicle id="40741142" type="pkw" depart="8">
        <route edges="-41910185#2 -4045329#5" />
    </vehicle>
    <vehicle id="1544858" type="pkw" depart="11">
        <route edges="241660955#4 -4999334" />
    </vehicle>
    <vehicle id="23388846" type="pkw" depart="14">
        <route edges="31864804 200818108#0 241660955#0 -41910186" />
    </vehicle>
    <vehicle id="80081267" type="pkw" depart="14">
        <route edges="241660957#0 4999331#0" />
    </vehicle>
    <vehicle id="12630806" type="pkw" depart="16">
        <route edges="31864804 -31864804" />
    </vehicle>
    <vehicle id="73448032" type="pkw" depart="17">
        <route edges="241660957#0 4999331#0" />
    </vehicle>
    <vehicle id="22596975" type="pkw" depart="23">
        <route edges="319261593#12" />
    </vehicle>
    <vehicle id="25209202" type="pkw" depart="25">
        <route edges="4045329#5 241660955#10 241660955#11" />
    </vehicle>
    <vehicle id="6054169" type="pkw" depart="27">
        <route edges="241660957#0 4999331#0" />
    </vehicle>
    <vehicle id="86829182" type="pkw" depart="27">
        <route edges="31864804 200818108#0 4999331#0" />
    </vehicle>
    <vehicle id="33484693" type="pkw" depart="29">
        <route edges="4999334 -241660955#5 -241660955#3 4999331#0" />
    </vehicle>
    <vehicle id="91072450" type="pkw" depart="29">
        <route edges="31864804 200818108#0 4999331#0" />
    </vehicle>
    <vehicle id="90879126" type="pkw" depart="30">
        <route edges="4045329#5 -241660955#9 -241660955#6 -241660955#5 31800061#0" />
    </vehicle>
    <vehicle id="82535020" type="pkw" depart="31">
        <route edges="-41910185#2 -4045329#5" />
    </vehicle>
    <vehicle id="24013747" type="pkw" depart="32">
        <route edges="241660957#0 4999331#0" />
    </vehicle>
    <vehicle id="90113881" type="pkw" depart="32">
        <route edges="-130160207#0 130160207#0 -130160207#0 -241660955#16 241660955#14 241660955#17" />
    </vehicle>
    <vehicle id="69635961" type="pkw" depart="32">
        <route edges="-241660955#17 -241660955#16 -241660955#13 -41910184" />
    </vehicle>
    <vehicle id="9149100" type="pkw" depart="33">
        <route edges="319261593#12 319261593#15 319261593#16 4145590#0" />
    </vehicle>
    <vehicle id="319696" type="pkw" depart="37">
        <route edges="241660957#0 4999331#0" />
    </vehicle>
    <vehicle id="23394821" type="pkw" depart="37">
        <route edges="-130160207#0 241660955#17" />
    </vehicle>
    <vehicle id="94578732" type="pkw" depart="39">
        <route edges="41910186 -241660955#3 4145590#0" />
    </vehicle>
    <vehicle id="9306296" type="pkw" depart="41">
        <route edges="-5229966#3 319261593#15 319261593#16 4145590#0" />
    </vehicle>
    <vehicle id="67903320" type="pkw" depart="41">
        <route edges="4045329#5 241660955#10 -4045330" />
    </vehicle>
    <vehicle id="33376898" type="pkw" depart="41">
        <route edges="-241660955#17 -241660955#16 -241660955#13 -41910184" />
    </vehicle>
    <vehicle id="13540926" type="pkw" depart="42">
        <route edges="241660957#0 4999331#0" />
    </vehicle>
    <vehicle id="53414663" type="pkw" depart="43">
        <route edges="-4999334" />
    </vehicle>
    <vehicle id="81396025" type="pkw" depart="43">
        <route edges="31864804 200818108#0 241660955#0 -41910186" />
    </vehicle>
    <vehicle id="21796350" type="pkw" depart="47">
        <route edges="241660955#6 241660955#7 241660955#10 241660955#11 241660955#13 241660955#14 241660955#17" />
    </vehicle>
    <vehicle id="95823735" type="pkw" depart="49">
        <route edges="-241660955#17 -241660955#16 -241660955#13 -41910184" />
    </vehicle>
    <vehicle id="54892674" type="pkw" depart="50">
        <route edges="-41910185#2 241660955#10 241660955#11 241660955#13 241660955#14 241660955#17" />
    </vehicle>
    <vehicle id="43154629" type="pkw" depart="51">
        <route edges="31864804 200818108#0 4145590#0" />
    </vehicle>
    <vehicle id="34204187" type="pkw" depart="52">
        <route edges="41910184 -41910184" />
    </vehicle>
    <vehicle id="92970372" type="pkw" depart="54">
        <route edges="-130160207#0 241660955#17" />
    </vehicle>
    <vehicle id="33147283" type="pkw" depart="54">
        <route edges="241660957#0 4999331#0" />
    </vehicle>
    <vehicle id="84717310" type="pkw" depart="54">
        <route edges="-5229966#3 319261593#15 319261593#16 4145590#0" />
    </vehicle>
    <vehicle id="91187396" type="pkw" depart="56">
        <route edges="4045330 241660955#11 241660955#13 241660955#14 130160207#0 -130160207#0 241660955#17" />
    </vehicle>
    <vehicle id="38710436" type="pkw" depart="57">
        <route edges="241660955#13 -241660955#13 -41910184" />
    </vehicle>
    <vehicle id="85709417" type="pkw" depart="61">
        <route edges="41910184 241660955#13 241660955#14 -241660955#16 4145589#0" />
    </vehicle>
    <vehicle id="76401495" type="pkw" depart="61">
        <route edges="241660957#0 4999331#0" />
    </vehicle>
    <vehicle id="99946784" type="pkw" depart="61">
        <route edges="31864804 200818108#0 241660955#0 241660955#4 241660955#6 241660955#7 241660955#10 241660955#11 241660955#13 241660955#14 241660955#17" />
    </vehicle>
    <vehicle id="86024597" type="pkw" depart="62">
        <route edges="4999334 -241660955#5 -241660955#3 -200818108#1 -31864804" />
    </vehicle>
    <vehicle id="54060876" type="pkw" depart="62">
        <route edges="-241660955#17 -241660955#16 -241660955#13 -241660955#12 -241660955#10 -241660955#9 -241660955#6 -241660955#5 -241660955#3 241660955#0 31800061#0" />
    </vehicle>
    <vehicle id="3636239" type="pkw" depart="63">
        <route edges="4045329#5 -241660955#9 -241660955#6 -241660955#5 -241660955#3 -200818108#1 -31864804" />
    </vehicle>
    <vehicle id="37135313" type="pkw" depart="63">
        <route edges="-241660955#3 -200818108#1 -31864804" />
    </vehicle>
    <vehicle id="29839183" type="pkw" depart="65">
        <route edges="-241660955#17 -241660955#16 -241660955#13 -41910184" />
    </vehicle>
    <vehicle id="14519844" type="pkw" depart="65">
        <route edges="4045329#5 241660955#10 241660955#11 241660955#13 241660955#14 241660955#17" />
    </vehicle>
    <vehicle id="48524356" type="pkw" depart="65">
        <route edges="4045329#5 -241660955#9 -241660955#6 -241660955#5 -241660955#3 -200818108#1 -31864804" />
    </vehicle>
    <vehicle id="75580946" type="pkw" depart="68">
        <route edges="4999334 -241660955#5 -241660955#3 -200818108#1 -31864804" />
    </vehicle>
    <vehicle id="63591902" type="pkw" depart="68">
        <route edges="4045329#5 41910185#0" />
    </vehicle>
    <vehicle id="25359530" type="pkw" depart="71">
        <route edges="31864804 200818108#0 4999331#0" />
    </vehicle>
    <vehicle id="79565183" type="pkw" depart="73">
        <route edges="4045329#5 41910185#0" />
    </vehicle>
    <vehicle id="69224464" type="pkw" depart="73">
        <route edges="4045329#5 241660955#10 241660955#11 241660955#13 4145589#0" />
    </vehicle>
    <vehicle id="83926962" type="pkw" depart="76">
        <route edges="-41910185#2 -4045329#5" />
    </vehicle>
    <vehicle id="66097804" type="pkw" depart="80">
        <route edges="4999334 -241660955#5 -241660955#3 -200818108#1 -31864804" />
    </vehicle>
    <vehicle id="17285115" type="pkw" depart="81">
        <route edges="31864804 200818108#0 4145590#0" />
    </vehicle>
    <vehicle id="71272591" type="pkw" depart="81">
        <route edges="-241660955#17 -241660955#16 -241660955#13 -241660955#12 -241660955#10 -241660955#9 -241660955#6 -241660955#5 -241660955#3 4145590#0" />
    </vehicle>
    <vehicle id="22146430" type="pkw" depart="82">
        <route edges="31864804 200818108#0 4145590#0" />
    </vehicle>
    <vehicle id="57210477" type="pkw" depart="83">
        <route edges="-130160207#0 241660955#17 -241660955#17 -241660955#16 4145589#0" />
    </vehicle>
    <vehicle id="51380478" type="pkw" depart="86">
        <route edges="4045329#5 -241660955#9 -241660955#6 -241660955#5 -241660955#3 -200818108#1 -31864804" />
    </vehicle>
    <vehicle id="4302454" type="pkw" depart="88">
        <route edges="-241660955#17 -241660955#16 -241660955#13 -241660955#12 -241660955#10 -241660955#9 -241660955#6 -241660955#5 -241660955#3 -200818108#1 -31864804" />
    </vehicle>
    <vehicle id="2368435" type="pkw" depart="88">
        <route edges="-241660955#17 130160207#0" />
    </vehicle>
    <vehicle id="85924718" type="pkw" depart="91">
        <route edges="-130160207#0 241660955#17" />
    </vehicle>
    <vehicle id="72051936" type="pkw" depart="93">
        <route edges="31864804 -31864804" />
    </vehicle>
    <vehicle id="15416763" type="pkw" depart="94">
        <route edges="319261593#12 319261593#15 319261593#16 -200818108#1 -31864804" />
    </vehicle>
    <vehicle id="97305486" type="pkw" depart="94">
        <route edges="241660957#0 4999331#0" />
    </vehicle>
    <vehicle id="95322852" type="pkw" depart="94">
        <route edges="-241660955#17 -241660955#16 -241660955#13 -241660955#12 -241660955#10 -241660955#9 -241660955#6 -4999334" />
    </vehicle>
    <vehicle id="9798107" type="pkw" depart="97">
        <route edges="241660957#0 -200818108#1 -31864804" />
    </vehicle>
    <vehicle id="84470405" type="pkw" depart="97">
        <route edges="4999334 -241660955#5 31800061#0" />
    </vehicle>
    <vehicle id="961445" type="pkw" depart="97">
        <route edges="4045329#5 241660955#10 -4045330" />
    </vehicle>
    <vehicle id="70364182" type="pkw" depart="98">
        <route edges="-41910185#2 241660955#10 241660955#11 -41910184" />
    </vehicle>
    <vehicle id="35172206" type="pkw" depart="99">
        <route edges="241660955#6 241660955#7 241660955#10 241660955#11 241660955#13 241660955#14 241660955#17" />
    </vehicle>
    <vehicle id="15071224" type="pkw" depart="100">
        <route edges="241660957#0 4999331#0" />
    </vehicle>
    <vehicle id="83048918" type="pkw" depart="100">
        <route edges="319261593#12 319261593#15 8197886#0 200818108#0 241660955#0 -41910186" />
    </vehicle>
    <vehicle id="58151657" type="pkw" depart="104">
        <route edges="31864804 200818108#0 241660955#0 -41910186" />
    </vehicle>
    <vehicle id="13643909" type="pkw" depart="105">
        <route edges="41910186 -241660955#3 -200818108#1 -31864804" />
    </vehicle>
    <vehicle id="99934300" type="pkw" depart="107">
        <route edges="241660957#0 4999331#0" />
    </vehicle>
    <vehicle id="80588302" type="pkw" depart="110">
        <route edges="241660957#0 4999331#0" />
    </vehicle>
    <vehicle id="66813084" type="pkw" depart="110">
        <route edges="31864804 200818108#0 4145590#0" />
    </vehicle>
    <vehicle id="1633135" type="pkw" depart="110">
        <route edges="41910186 31800061#0" />
    </vehicle>
    <vehicle id="4802371" type="pkw" depart="111">
        <route edges="319261593#12 319261593#15 319261593#16 4999331#0" />
    </vehicle>
    <vehicle id="1453117" type="pkw" depart="115">
        <route edges="-130160207#0 241660955#17 -241660955#17 -241660955#16 -241660955#13 -41910184" />
    </vehicle>
    <vehicle id="19131487" type="pkw" depart="115">
        <route edges="-130160207#0 -241660955#16 -241660955#13 -241660955#12 -241660955#10 -241660955#9 -241660955#6 -241660955#5 -241660955#3 -200818108#1 -31864804" />
    </vehicle>
    <vehicle id="17794967" type="pkw" depart="118">
        <route edges="319261593#12 319261593#15 319261593#16 4145590#0" />
    </vehicle>
    <vehicle id="86395693" type="pkw" depart="119">
        <route edges="31864804 200818108#0 241660955#0 -41910186" />
    </vehicle>
    <vehicle id="17953648" type="pkw" depart="120">
        <route edges="-130160207#0 -241660955#16 -241660955#13 -241660955#12 -241660955#10 -4045329#5" />
    </vehicle>
    <vehicle id="6859537" type="pkw" depart="120">
        <route edges="241660957#0 241660955#0 241660955#4 241660955#6 241660955#7 241660955#10 -4045330" />
    </vehicle>
    <vehicle id="10553637" type="pkw" depart="126">
        <route edges="31864804 200818108#0 4145590#0" />
    </vehicle>
    <vehicle id="90628887" type="pkw" depart="126">
        <route edges="241660957#0 241660955#0 241660955#4 241660955#6 241660955#7" />
    </vehicle>
    <vehicle id="45091629" type="pkw" depart="127">
        <route edges="41910186 -241660955#3 4145590#0" />
    </vehicle>
    <vehicle id="20039010" type="pkw" depart="128">
        <route edges="31864804 200818108#0 241660955#0 -41910186" />
    </vehicle>
    <vehicle id="25298254" type="pkw" depart="129">
        <route edges="41910184 241660955#13 4145589#0" />
    </vehicle>
    <vehicle id="97807206" type="pkw" depart="130">
        <route edges="130160207#0 -130160207#0 -241660955#16 241660955#14 -241660955#16 -241660955#13 -41910184" />
    </vehicle>
    <vehicle id="86340370" type="pkw" depart="130">
        <route edges="31864804 200818108#0 4999331#0" />
    </vehicle>
    <vehicle id="86705431" type="pkw" depart="132">
        <route edges="4999334 -241660955#5 31800061#0" />
    </vehicle>
    <vehicle id="8050983" type="pkw" depart="133">
        <route edges="241660957#0 4999331#0" />
    </vehicle>
    <vehicle id="61751979" type="pkw" depart="134">
        <route edges="-241660955#17 -241660955#16 -241660955#13 -241660955#12 -241660955#10 -241660955#9 -241660955#6 -241660955#5 -241660955#3 241660955#0 31800061#0" />
    </vehicle>
    <vehicle id="66795050" type="pkw" depart="134">
        <route edges="130160207#0 -130160207#0 -241660955#16 -241660955#13 -241660955#12 -241660955#10 -241660955#9 -241660955#6 -241660955#5 -241660955#3 4145590#0" />
    </vehicle>
    <vehicle id="91046043" type="pkw" depart="135">
        <route edges="41910186 -241660955#3 4145590#0" />
    </vehicle>
    <vehicle id="63658335" type="pkw" depart="135">
        <route edges="4045329#5 -241660955#9 -241660955#6 -241660955#5 -241660955#3 4145590#0" />
    </vehicle>
    <vehicle id="18447277" type="pkw" depart="136">
        <route edges="-130160207#0 241660955#17" />
    </vehicle>
    <vehicle id="5489572" type="pkw" depart="136">
        <route edges="41910186 -241660955#3 -200818108#1 -31864804" />
    </vehicle>
    <vehicle id="70746249" type="pkw" depart="137">
        <route edges="31864804 200818108#0 241660955#0 241660955#4 -4999334" />
    </vehicle>
    <vehicle id="18375720" type="pkw" depart="138">
        <route edges="-5229966#3 319261593#15 319261593#16 4145590#0" />
    </vehicle>
    <vehicle id="50281331" type="pkw" depart="138">
        <route edges="4045329#5 -241660955#9 -241660955#6 -241660955#5 -241660955#3 4145590#0" />
    </vehicle>
    <vehicle id="22461391" type="pkw" depart="138">
        <route edges="319261593#12 319261593#15 319261593#16 -200818108#1 -31864804" />
    </vehicle>
    <vehicle id="27276290" type="pkw" depart="138">
        <route edges="319261593#12 319261593#15 319261593#16 -200818108#1 -31864804" />
    </vehicle>
    <vehicle id="23937476" type="pkw" depart="139">
        <route edges="-31800061#0 31800061#0" />
    </vehicle>
    <vehicle id="11245745" type="pkw" depart="139">
        <route edges="31864804 200818108#0 241660955#0 -41910186" />
    </vehicle>
    <vehicle id="89426270" type="pkw" depart="139">
        <route edges="41910186 -241660955#3 -200818108#1 -31864804" />
    </vehicle>
    <vehicle id="72599839" type="pkw" depart="139">
        <route edges="4999334 -4999334" />
    </vehicle>
    <vehicle id="44501169" type="pkw" depart="139">
        <route edges="-41910185#2 -4045329#5" />
    </vehicle>
    <vehicle id="39783319" type="pkw" depart="140">
        <route edges="-41910185#2 -4045329#5" />
    </vehicle>
    <vehicle id="32900433" type="pkw" depart="140">
        <route edges="-5229966#3 319261593#15 319261593#16 4145590#0" />
    </vehicle>
    <vehicle id="73963253" type="pkw" depart="142">
        <route edges="319261593#12 319261593#15 319261593#16 4145590#0" />
    </vehicle>
    <vehicle id="47384668" type="pkw" depart="144">
        <route edges="41910184 241660955#13 4145589#0" />
    </vehicle>
    <vehicle id="87649084" type="pkw" depart="144">
        <route edges="-130160207#0 -241660955#16 -241660955#13 -41910184" />
    </vehicle>
    <vehicle id="24919575" type="pkw" depart="145">
        <route edges="31864804 200818108#0 241660955#0 -41910186" />
    </vehicle>
    <vehicle id="85607339" type="pkw" depart="145">
        <route edges="-5229966#3 319261593#15 319261593#16 4145590#0" />
    </vehicle>
    <vehicle id="11433053" type="pkw" depart="146">
        <route edges="319261593#12 319261593#15 319261593#16 -200818108#1 -31864804" />
    </vehicle>
    <vehicle id="64757037" type="pkw" depart="147">
        <route edges="-130160207#0 241660955#17 -241660955#17 241660955#17" />
    </vehicle>
    <vehicle id="20882467" type="pkw" depart="149">
        <route edges="41910184 -241660955#12 -241660955#10 241660955#10 241660955#11 241660955#13 241660955#14 241660955#17" />
    </vehicle>
    <vehicle id="85616457" type="pkw" depart="150">
        <route edges="241660955#13 -241660955#13 -41910184" />
    </vehicle>
    <vehicle id="27248939" type="pkw" depart="154">
        <route edges="31864804 200818108#0 241660955#0 -41910186" />
    </vehicle>
    <vehicle id="37835806" type="pkw" depart="154">
        <route edges="4999334 -4999334" />
    </vehicle>
    <vehicle id="30628394" type="pkw" depart="154">
        <route edges="-130160207#0 -241660955#16 -241660955#13 -41910184" />
    </vehicle>
    <vehicle id="13411142" type="pkw" depart="156">
        <route edges="-41910185#2 -4045329#5" />
    </vehicle>
    <vehicle id="49513103" type="pkw" depart="156">
        <route edges="-241660955#17 -241660955#16 -241660955#13 -41910184" />
    </vehicle>
    <vehicle id="83988483" type="pkw" depart="157">
        <route edges="241660957#0 4999331#0" />
    </vehicle>
    <vehicle id="93563384" type="pkw" depart="158">
        <route edges="4045329#5 -241660955#9 -241660955#6 -241660955#5 -241660955#3 4145590#0" />
    </vehicle>
    <vehicle id="11436152" type="pkw" depart="158">
        <route edges="241660957#0 4999331#0" />
    </vehicle>
    <vehicle id="81922673" type="pkw" depart="159">
        <route edges="4045330 241660955#11 241660955#13 241660955#14 -241660955#16 -241660955#13 -41910184" />
    </vehicle>
    <vehicle id="37597186" type="pkw" depart="162">
        <route edges="241660957#0 241660955#0 -41910186" />
    </vehicle>
    <vehicle id="90731977" type="pkw" depart="163">
        <route edges="-241660955#17 -241660955#16 -241660955#13 -241660955#12 -241660955#10 -241660955#9 -241660955#6 -241660955#5 -241660955#3 4145590#0" />
    </vehicle>
    <vehicle id="30740279" type="pkw" depart="163">
        <route edges="-31800061#0 241660955#4 -4999334" />
    </vehicle>
    <vehicle id="82407520" type="pkw" depart="168">
        <route edges="-5229966#3 319261593#15 319261593#16 4145590#0" />
    </vehicle>
    <vehicle id="21417698" type="pkw" depart="169">
        <route edges="241660957#0 4999331#0" />
    </vehicle>
    <vehicle id="91738905" type="pkw" depart="169">
        <route edges="4045329#5 -241660955#9 -241660955#6 -241660955#5 -241660955#3 -200818108#1 -31864804" />
    </vehicle>
    <vehicle id="30593674" type="pkw" depart="171">
        <route edges="4045330 241660955#11 241660955#13 241660955#14 130160207#0 -130160207#0 241660955#17" />
    </vehicle>
    <vehicle id="75632288" type="pkw" depart="173">
        <route edges="4045329#5 -241660955#9 4045332#0" />
    </vehicle>
    <vehicle id="60075768" type="pkw" depart="173">
        <route edges="31864804 200818108#0 241660955#0 241660955#4 -4999334" />
    </vehicle>
    <vehicle id="36118142" type="pkw" depart="173">
        <route edges="31864804 200818108#0 241660955#0 241660955#4 241660955#6 241660955#7 -4045329#5" />
    </vehicle>
    <vehicle id="9796816" type="pkw" depart="174">
        <route edges="-241660955#17 -241660955#16 -241660955#13 -241660955#12 -241660955#10 -241660955#9 -241660955#6 -241660955#5 -241660955#3 -200818108#1 -31864804" />
    </vehicle>
    <vehicle id="63385164" type="pkw" depart="174">
        <route edges="319261593#12 319261593#15 319261593#16 -200818108#1 -31864804" />
    </vehicle>
    <vehicle id="74979871" type="pkw" depart="177">
        <route edges="241660957#0 4999331#0" />
    </vehicle>
    <vehicle id="67593239" type="pkw" depart="178">
        <route edges="41910184 241660955#13 241660955#14 241660955#17" />
    </vehicle>
    <vehicle id="6838041" type="pkw" depart="178">
        <route edges="241660955#4 -241660955#5 -241660955#3 4145590#0" />
    </vehicle>
    <vehicle id="83599315" type="pkw" depart="179">
        <route edges="4999334 241660955#6 241660955#7 241660955#10 241660955#11 241660955#13 241660955#14 241660955#17" />
    </vehicle>
    <vehicle id="63693994" type="pkw" depart="180">
        <route edges="319261593#12 319261593#15 319261593#16 4145590#0" />
    </vehicle>
    <vehicle id="19550616" type="pkw" depart="180">
        <route edges="31864804 200818108#0 241660955#0 241660955#4 241660955#6 -241660955#6 -4999334" />
    </vehicle>
    <vehicle id="43216275" type="pkw" depart="181">
        <route edges="241660957#0 4999331#0" />
    </vehicle>
    <vehicle id="64987007" type="pkw" depart="182">
        <route edges="-130160207#0 -241660955#16 -241660955#13 -41910184" />
    </vehicle>
    <vehicle id="97989977" type="pkw" depart="183">
        <route edges="4999334 -241660955#5 -241660955#3 -200818108#1 -31864804" />
    </vehicle>
    <vehicle id="96812693" type="pkw" depart="184">
        <route edges="241660957#0 4999331#0" />
    </vehicle>
    <vehicle id="7539193" type="pkw" depart="186">
        <route edges="-4999334 4999334 241660955#6 -241660955#6 -241660955#5 -241660955#3 -200818108#1 -31864804" />
    </vehicle>
    <vehicle id="48728859" type="pkw" depart="188">
        <route edges="31864804 200818108#0 4999331#0" />
    </vehicle>
    <vehicle id="90115874" type="pkw" depart="189">
        <route edges="-4999334" />
    </vehicle>
    <vehicle id="54483074" type="pkw" depart="189">
        <route edges="4045329#5 41910185#0" />
    </vehicle>
    <vehicle id="71979442" type="pkw" depart="190">
        <route edges="31864804 200818108#0 241660955#0 -241660955#3" />
    </vehicle>
    <vehicle id="49606906" type="pkw" depart="190">
        <route edges="-31800061#0 -41910186" />
    </vehicle>
    <vehicle id="24117714" type="pkw" depart="190">
        <route edges="-41910185#2 -241660955#9 -241660955#6 -241660955#5 -241660955#3 -200818108#1 -31864804" />
    </vehicle>
    <vehicle id="7036045" type="pkw" depart="192">
        <route edges="-41910185#2 -241660955#9 -241660955#6 -241660955#5 -241660955#3 -200818108#1 -31864804" />
    </vehicle>
    <vehicle id="28883688" type="pkw" depart="194">
        <route edges="31864804 200818108#0 4999331#0" />
    </vehicle>
    <vehicle id="34167165" type="pkw" depart="195">
        <route edges="-31800061#0 241660955#4 241660955#6 241660955#7 241660955#10 241660955#11 -41910184" />
    </vehicle>
    <vehicle id="25831933" type="pkw" depart="195">
        <route edges="319261593#12 319261593#15 319261593#16 -200818108#1 -31864804" />
    </vehicle>
    <vehicle id="61983848" type="pkw" depart="196">
        <route edges="-130160207#0 -241660955#16 -241660955#13 -41910184" />
    </vehicle>
    <vehicle id="74237540" type="pkw" depart="196">
        <route edges="4045330 241660955#11 241660955#13 241660955#14 241660955#17" />
    </vehicle>
    <vehicle id="95275106" type="pkw" depart="197">
        <route edges="241660957#0 4999331#0" />
    </vehicle>
    <vehicle id="96182952" type="pkw" depart="198">
        <route edges="41910186 -241660955#3 4145590#0" />
    </vehicle>
    <vehicle id="191369" type="pkw" depart="199">
        <route edges="4045329#5 41910185#0" />
    </vehicle>
    <vehicle id="26419247" type="pkw" depart="201">
        <route edges="-241660955#17 -241660955#16 -241660955#13 -41910184" />
    </vehicle>
    <vehicle id="63219933" type="pkw" depart="201">
        <route edges="41910184 -41910184" />
    </vehicle>
    <vehicle id="53313912" type="pkw" depart="204">
        <route edges="4045329#5 -241660955#9 -241660955#6 -241660955#5 31800061#0" />
    </vehicle>
    <vehicle id="93660414" type="pkw" depart="204">
        <route edges="-5229966#3 319261593#15 319261593#16 4999331#0" />
    </vehicle>
    <vehicle id="78158902" type="pkw" depart="205">
        <route edges="241660957#0 4999331#0" />
    </vehicle>
    <vehicle id="87446277" type="pkw" depart="208">
        <route edges="-241660955#17 130160207#0" />
    </vehicle>
    <vehicle id="45533446" type="pkw" depart="209">
        <route edges="31864804 200818108#0 4999331#0" />
    </vehicle>
    <vehicle id="3014075" type="pkw" depart="210">
        <route edges="241660957#0 4999331#0" />
    </vehicle>
    <vehicle id="17691885" type="pkw" depart="210">
        <route edges="319261593#12 319261593#15 319261593#16 4145590#0" />
    </vehicle>
    <vehicle id="59172970" type="pkw" depart="210">
        <route edges="-241660955#17 -241660955#16 -241660955#13 -41910184" />
    </vehicle>
    <vehicle id="60326324" type="pkw" depart="211">
        <route edges="-130160207#0 241660955#17" />
    </vehicle>
    <vehicle id="77422356" type="pkw" depart="211">
        <route edges="241660957#0 4999331#0" />
    </vehicle>
    <vehicle id="54130020" type="pkw" depart="212">
        <route edges="241660957#0 4999331#0" />
    </vehicle>
    <vehicle id="21965097" type="pkw" depart="213">
        <route edges="241660957#0 4999331#0" />
    </vehicle>
    <vehicle id="34937627" type="pkw" depart="213">
        <route edges="31864804 -31864804" />
    </vehicle>
    <vehicle id="18554120" type="pkw" depart="214">
        <route edges="241660957#0 4999331#0" />
    </vehicle>
    <vehicle id="12996077" type="pkw" depart="214">
        <route edges="-241660955#17 -241660955#16 -241660955#13 -241660955#12 -241660955#10 -241660955#9 -241660955#6 -241660955#5 -241660955#3 4999331#0" />
    </vehicle>
    <vehicle id="95539125" type="pkw" depart="214">
        <route edges="4045330 241660955#11 241660955#13 241660955#14 241660955#17" />
    </vehicle>
    <vehicle id="52580738" type="pkw" depart="214">
        <route edges="319261593#12 319261593#15 319261593#16 4145590#0" />
    </vehicle>
    <vehicle id="10513932" type="pkw" depart="215">
        <route edges="31864804 200818108#0 4145590#0" />
    </vehicle>
    <vehicle id="62465723" type="pkw" depart="215">
        <route edges="241660957#0 -200818108#1 -31864804" />
    </vehicle>
    <vehicle id="36842564" type="pkw" depart="217">
        <route edges="31864804 200818108#0 241660955#0 -41910186" />
    </vehicle>
    <vehicle id="85511895" type="pkw" depart="218">
        <route edges="241660957#0 -200818108#1 -31864804" />
    </vehicle>
    <vehicle id="57026041" type="pkw" depart="218">
        <route edges="31864804 200818108#0 241660955#0 241660955#4 241660955#6 241660955#7 241660955#10 241660955#11 241660955#13 241660955#14 241660955#17" />
    </vehicle>
    <vehicle id="58298376" type="pkw" depart="219">
        <route edges="-241660955#12 -241660955#10 -241660955#9 4045332#0" />
    </vehicle>
    <vehicle id="31494251" type="pkw" depart="220">
        <route edges="-241660955#17 -241660955#16 -241660955#13 -241660955#12 -241660955#10 -241660955#9 -241660955#6 -241660955#5 -241660955#3 -200818108#1 -31864804" />
    </vehicle>
    <vehicle id="75094367" type="pkw" depart="221">
        <route edges="241660957#0 -200818108#1 -31864804" />
    </vehicle>
    <vehicle id="31192644" type="pkw" depart="221">
        <route edges="241660957#0 4999331#0" />
    </vehicle>
    <vehicle id="38376614" type="pkw" depart="223">
        <route edges="-130160207#0 241660955#17" />
    </vehicle>
    <vehicle id="96728098" type="pkw" depart="223">
        <route edges="241660957#0 4999331#0" />
    </vehicle>
    <vehicle id="11658706" type="pkw" depart="224">
        <route edges="241660957#0 -200818108#1 -31864804" />
    </vehicle>
    <vehicle id="34942064" type="pkw" depart="224">
        <route edges="-31800061#0 241660955#4 -4999334" />
    </vehicle>
    <vehicle id="3783059" type="pkw" depart="225">
        <route edges="319261593#12 319261593#15 319261593#16 4145590#0" />
    </vehicle>
    <vehicle id="10870149" type="pkw" depart="225">
        <route edges="-31800061#0 241660955#4 241660955#6 241660955#7 241660955#10 241660955#11 241660955#13 241660955#14 241660955#17" />
    </vehicle>
    <vehicle id="68613162" type="pkw" depart="225">
        <route edges="-241660955#17 -241660955#16 -241660955#13 -241660955#12 -241660955#10 -241660955#9 -241660955#6 -241660955#5 -241660955#3 -200818108#1 -31864804" />
    </vehicle>
    <vehicle id="27295973" type="pkw" depart="226">
        <route edges="-241660955#17 -241660955#16 -241660955#13 -41910184" />
    </vehicle>
    <vehicle id="87883975" type="pkw" depart="227">
        <route edges="319261593#12 319261593#15 319261593#16 4145590#0" />
    </vehicle>
    <vehicle id="14409468" type="pkw" depart="227">