<?xml version='1.0' encoding='utf-8'?>
<routes>
    <vType id="pkw" vClass="passenger" speedDev="0.1" length="4.3" minGap="1.5" />
    <vehicle id="65112420" type="pkw" depart="0">
        <route edges="41910184 241660955#13 241660955#14 241660955#17" />
    </vehicle>
    <vehicle id="76295211" type="pkw" depart="1">
        <route edges="4999334 -241660955#5 -241660955#3 -200818108#1 -31864804" />
    </vehicle>
    <vehicle id="14519389" type="pkw" depart="4">
        <route edges="241660957#0 4999331#0" />
    </vehicle>
    <vehicle id="23357826" type="pkw" depart="4">
        <route edges="41910184 241660955#13 241660955#14 130160207#0" />
    </vehicle>
    <vehicle id="48341590" type="pkw" depart="6">
        <route edges="41910184 -241660955#12 -241660955#10 241660955#10 241660955#11 241660955#13 241660955#14 241660955#17" />
    </vehicle>
    <vehicle id="80465969" type="pkw" depart="7">
        <route edges="319261593#12 319261593#15 319261593#16 4145590#0" />
    </vehicle>
    <vehicle id="55536526" type="pkw" depart="7">
        <route edges="241660957#0 -200818108#1 -31864804" />
    </vehicle>
    <vehicle id="51590182" type="pkw" depart="7">
        <route edges="-5229966#3 319261593#15 319261593#16 4999331#0" />
    </vehicle>
    <vehicle id="56141714" type="pkw" depart="8">
        <route edges="31864804 200818108#0 241660955#0 241660955#4 241660955#6 4045332#0" />
    </vehicle>
    <vehicle id="93944083" type="pkw" depart="14">
        <route edges="41910184 241660955#13 4145589#0" />
    </vehicle>
    <vehicle id="87569698" type="pkw" depart="16">
        <route edges="-41910185#2 241660955#10 241660955#11 241660955#13 -241660955#13 -41910184" />
    </vehicle>
    <vehicle id="26612288" type="pkw" depart="16">
        <route edges="41910186 -241660955#3 -200818108#1 -31864804" />
    </vehicle>
    <vehicle id="39158962" type="pkw" depart="16">
        <route edges="41910184 241660955#13 241660955#14 241660955#17" />
    </vehicle>
    <vehicle id="92397192" type="pkw" depart="16">
        <route edges="319261593#12 319261593#15 8197886#0 200818108#0 4145590#0" />
    </vehicle>
    <vehicle id="51564911" type="pkw" depart="17">
        <route edges="-241660955#17 -241660955#16 -241660955#13 -41910184" />
    </vehicle>
    <vehicle id="66957504" type="pkw" depart="18">
        <route edges="-41910185#2 241660955#10 241660955#11 -41910184" />
    </vehicle>
    <vehicle id="47486559" type="pkw" depart="18">
        <route edges="41910186 -241660955#3 -200818108#1 -31864804" />
    </vehicle>
    <vehicle id="33067221" type="pkw" depart="19">
        <route edges="31864804 200818108#0 4999331#0" />
    </vehicle>
    <vehicle id="49692826" type="pkw" depart="20">
        <route edges="31864804 -31864804" />
    </vehicle>
    <vehicle id="49309402" type="pkw" depart="20">
        <route edges="31864804 200818108#0 4145590#0" />
    </vehicle>
    <vehicle id="74384675" type="pkw" depart="20">
        <route edges="-130160207#0 -241660955#16 -241660955#13 -41910184" />
    </vehicle>
    <vehicle id="21163585" type="pkw" depart="22">
        <route edges="4045330 241660955#11 -241660955#12 -241660955#10 -241660955#9 -241660955#6 -4999334" />
    </vehicle>
    <vehicle id="80722015" type="pkw" depart="24">
        <route edges="-31800061#0 -41910186" />
    </vehicle>
    <vehicle id="15371046" type="pkw" depart="25">
        <route edges="4045330 241660955#11 241660955#13 241660955#14 241660955#17" />
    </vehicle>
    <vehicle id="92558236" type="pkw" depart="26">
        <route edges="-41910185#2 -4045329#5" />
    </vehicle>
    <vehicle id="8003811" type="pkw" depart="27">
        <route edges="-5229966#3 319261593#15 8197886#0 -31864804" />
    </vehicle>
    <vehicle id="33965773" type="pkw" depart="32">
        <route edges="31864804 200818108#0 4999331#0" />
    </vehicle>
    <vehicle id="31767294" type="pkw" depart="35">
        <route edges="31864804 200818108#0 241660955#0 241660955#4 241660955#6 -241660955#6 -4999334" />
    </vehicle>
    <vehicle id="23790552" type="pkw" depart="36">
        <route edges="241660957#0 241660955#0 -41910186" />
    </vehicle>
    <vehicle id="55388012" type="pkw" depart="38">
        <route edges="31864804 200818108#0 4999331#0" />
    </vehicle>
    <vehicle id="50863598" type="pkw" depart="39">
        <route edges="4999334 -241660955#5 31800061#0" />
    </vehicle>
    <vehicle id="18079794" type="pkw" depart="39">
        <route edges="-31800061#0 241660955#4 241660955#6 241660955#7 241660955#10 241660955#11 -41910184" />
    </vehicle>
    <vehicle id="1305251" type="pkw" depart="39">
        <route edges="-241660955#17 -241660955#16 -241660955#13 -241660955#12 -241660955#10 -241660955#9 4045332#0" />
    </vehicle>
    <vehicle id="44231509" type="pkw" depart="39">
        <route edges="-130160207#0 130160207#0" />
    </vehicle>
    <vehicle id="22538788" type="pkw" depart="40">
        <route edges="4045330 241660955#11 241660955#13 -241660955#13 -41910184" />
    </vehicle>
    <vehicle id="51294709" type="pkw" depart="40">
        <route edges="4045330 241660955#11 -41910184" />
    </vehicle>
    <vehicle id="18843982" type="pkw" depart="43">
        <route edges="319261593#12 319261593#15 8197886#0 200818108#0 4145590#0" />
    </vehicle>
    <vehicle id="67214308" type="pkw" depart="49">
        <route edges="31864804 200818108#0 4145590#0" />
    </vehicle>
    <vehicle id="7081956" type="pkw" depart="49">
        <route edges="-41910185#2 -4045329#5" />
    </vehicle>
    <vehicle id="67423760" type="pkw" depart="49">
        <route edges="319261593#12 319261593#15 319261593#16 4145590#0" />
    </vehicle>
    <vehicle id="58074665" type="pkw" depart="49">
        <route edges="41910186 31800061#0" />
    </vehicle>
    <vehicle id="55917104" type="pkw" depart="50">
        <route edges="-130160207#0 241660955#17" />
    </vehicle>
    <vehicle id="6555608" type="pkw" depart="50">
        <route edges="-31800061#0 241660955#4 -4999334" />
    </vehicle>
    <vehicle id="52700469" type="pkw" depart="50">
        <route edges="31864804 200818108#0 4145590#0" />
    </vehicle>
    <vehicle id="81104446" type="pkw" depart="52">
        <route edges="319261593#12 319261593#15 319261593#16 -200818108#1 -31864804" />
    </vehicle>
    <vehicle id="62676063" type="pkw" depart="53">
        <route edges="4999334 -241660955#5 31800061#0" />
    </vehicle>
    <vehicle id="41975413" type="pkw" depart="54">
        <route edges="4045330 241660955#11 241660955#13 241660955#14 241660955#17" />
    </vehicle>
    <vehicle id="18136220" type="pkw" depart="56">
        <route edges="241660957#0 4999331#0" />
    </vehicle>
    <vehicle id="31569661" type="pkw" depart="56">
        <route edges="4045329#5 241660955#10 241660955#11 241660955#13 241660955#14 241660955#17" />
    </vehicle>
    <vehicle id="82260642" type="pkw" depart="58">
        <route edges="-241660955#17 -241660955#16 -241660955#13 -241660955#12 -241660955#10 -241660955#9 -241660955#6 -241660955#5 -241660955#3 -200818108#1 -31864804" />
    </vehicle>
    <vehicle id="29329328" type="pkw" depart="60">
        <route edges="-130160207#0 -241660955#16 -241660955#13 -41910184" />
    </vehicle>
    <vehicle id="64676545" type="pkw" depart="62">
        <route edges="4045330 241660955#11 -41910184" />
    </vehicle>
    <vehicle id="87991655" type="pkw" depart="62">
        <route edges="31864804 200818108#0 4145590#0" />
    </vehicle>
    <vehicle id="11763741" type="pkw" depart="64">
        <route edges="-31800061#0 -41910186" />
    </vehicle>
    <vehicle id="92972612" type="pkw" depart="64">
        <route edges="31864804 200818108#0 4999331#0" />
    </vehicle>
    <vehicle id="69251509" type="pkw" depart="68">
        <route edges="-130160207#0 241660955#17" />
    </vehicle>
    <vehicle id="3782586" type="pkw" depart="69">
        <route edges="31864804 200818108#0 4999331#0" />
    </vehicle>
    <vehicle id="235955" type="pkw" depart="70">
        <route edges="-241660955#17 -241660955#16 -241660955#13 -241660955#12 -241660955#10 -241660955#9 -241660955#6 -241660955#5 -241660955#3 -200818108#1 -31864804" />
    </vehicle>
    <vehicle id="59382208" type="pkw" depart="70">
        <route edges="319261593#12 319261593#15 319261593#16 -200818108#1 -31864804" />
    </vehicle>
    <vehicle id="84804767" type="pkw" depart="72">
        <route edges="4045329#5 -241660955#9 4045332#0" />
    </vehicle>
    <vehicle id="83875394" type="pkw" depart="72">
        <route edges="241660957#0 241660955#0 241660955#4 241660955#6 241660955#7 241660955#10 241660955#11 241660955#13 241660955#14 241660955#17" />
    </vehicle>
    <vehicle id="75297451" type="pkw" depart="72">
        <route edges="41910186 -241660955#3 -200818108#1 -31864804" />
    </vehicle>
    <vehicle id="78632730" type="pkw" depart="74">
        <route edges="-241660955#17 -241660955#16 -241660955#13 -41910184" />
    </vehicle>
    <vehicle id="89402835" type="pkw" depart="75">
        <route edges="31864804 200818108#0 241660955#0 241660955#4 -4999334" />
    </vehicle>
    <vehicle id="37572869" type="pkw" depart="76">
        <route edges="-241660955#17 -241660955#16 -241660955#13 -241660955#12 -241660955#10 -241660955#9 -241660955#6 -241660955#5 -241660955#3 4145590#0" />
    </vehicle>
    <vehicle id="15108860" type="pkw" depart="77">
        <route edges="241660957#0 4999331#0" />
    </vehicle>
    <vehicle id="27874741" type="pkw" depart="77">
        <route edges="4045330 241660955#11 241660955#13 241660955#14 130160207#0 -130160207#0 241660955#17" />
    </vehicle>
    <vehicle id="63738466" type="pkw" depart="78">
        <route edges="41910186 -241660955#3 -200818108#1 -31864804" />
    </vehicle>
    <vehicle id="3087633" type="pkw" depart="79">
        <route edges="-31800061#0 -41910186" />
    </vehicle>
    <vehicle id="78576848" type="pkw" depart="81">
        <route edges="31864804 200818108#0 4145590#0" />
    </vehicle>
    <vehicle id="80286253" type="pkw" depart="81">
        <route edges="241660957#0 241660955#0 241660955#4 241660955#6 4045332#0" />
    </vehicle>
    <vehicle id="3916418" type="pkw" depart="81">
        <route edges="241660957#0 -200818108#1 -31864804" />
    </vehicle>
    <vehicle id="32831035" type="pkw" depart="82">
        <route edges="241660957#0 4999331#0" />
    </vehicle>
    <vehicle id="50613133" type="pkw" depart="83">
        <route edges="31864804 200818108#0 241660955#0 241660955#4 -4999334" />
    </vehicle>
    <vehicle id="84576774" type="pkw" depart="86">
        <route edges="4045329#5 -241660955#9 -241660955#6 -241660955#5 -241660955#3 -200818108#1 -31864804" />
    </vehicle>
    <vehicle id="50226433" type="pkw" depart="87">
        <route edges="241660957#0 241660955#0 241660955#4 -4999334" />
    </vehicle>
    <vehicle id="69181094" type="pkw" depart="88">
        <route edges="31864804 200818108#0 4999331#0" />
    </vehicle>
    <vehicle id="81637841" type="pkw" depart="88">
        <route edges="4999334 241660955#6 -241660955#6 -241660955#5 -41910186" />
    </vehicle>
    <vehicle id="2744977" type="pkw" depart="89">
        <route edges="4045329#5 41910185#0" />
    </vehicle>
    <vehicle id="85972035" type="pkw" depart="89">
        <route edges="241660957#0 -200818108#1 -31864804" />
    </vehicle>
    <vehicle id="36144860" type="pkw" depart="89">
        <route edges="41910186 -241660955#3 -200818108#1 -31864804" />
    </vehicle>
    <vehicle id="44638555" type="pkw" depart="90">
        <route edges="-130160207#0 241660955#17" />
    </vehicle>
    <vehicle id="96357851" type="pkw" depart="91">
        <route edges="319261593#12 319261593#15 319261593#16 4145590#0" />
    </vehicle>
    <vehicle id="81796305" type="pkw" depart="91">
        <route edges="241660957#0 4999331#0" />
    </vehicle>
    <vehicle id="66972096" type="pkw" depart="92">
        <route edges="4045329#5 41910185#0" />
    </vehicle>
    <vehicle id="38364376" type="pkw" depart="93">
        <route edges="319261593#12 319261593#15 319261593#16 4145590#0" />
    </vehicle>
    <vehicle id="80539437" type="pkw" depart="98">
        <route edges="-241660955#17 -241660955#16 -241660955#13 -241660955#12 -241660955#10 -241660955#9 -241660955#6 -241660955#5 -241660955#3 -200818108#1 -31864804" />
    </vehicle>
    <vehicle id="76198634" type="pkw" depart="100">
        <route edges="-31800061#0 241660955#4 241660955#6 241660955#7 241660955#10 241660955#11 241660955#13 4145589#0" />
    </vehicle>
    <vehicle id="56576882" type="pkw" depart="100">
        <route edges="4045329#5 41910185#0" />
    </vehicle>
    <vehicle id="92783599" type="pkw" depart="101">
        <route edges="319261593#12 319261593#15 319261593#16 241660955#0 241660955#4 241660955#6 241660955#7 241660955#10 241660955#11 241660955#13 241660955#14 241660955#17" />
    </vehicle>
    <vehicle id="28111663" type="pkw" depart="103">
        <route edges="31864804 200818108#0 4145590#0" />
    </vehicle>
    <vehicle id="66614309" type="pkw" depart="104">
        <route edges="241660957#0 4999331#0" />
    </vehicle>
    <vehicle id="76556514" type="pkw" depart="104">
        <route edges="41910184 -241660955#12 -241660955#10 241660955#10 241660955#11 241660955#13 -241660955#13 -41910184" />
    </vehicle>
    <vehicle id="41276835" type="pkw" depart="105">
        <route edges="319261593#12 319261593#15 319261593#16 4145590#0" />
    </vehicle>
    <vehicle id="63895749" type="pkw" depart="106">
        <route edges="4045330 241660955#11 241660955#13 241660955#14 241660955#17" />
    </vehicle>
    <vehicle id="27972104" type="pkw" depart="106">
        <route edges="-130160207#0 241660955#17" />
    </vehicle>
    <vehicle id="29987848" type="pkw" depart="107">
        <route edges="-31800061#0 241660955#4 241660955#6 241660955#7 241660955#10 241660955#11 241660955#13 4145589#0" />
    </vehicle>
    <vehicle id="49747090" type="pkw" depart="107">
        <route edges="4999334 -241660955#5 31800061#0" />
    </vehicle>
    <vehicle id="76185478" type="pkw" depart="108">
        <route edges="41910184 241660955#13 241660955#14 241660955#17" />
    </vehicle>
    <vehicle id="4513674" type="pkw" depart="109">
        <route edges="241660957#0 -200818108#1 -31864804" />
    </vehicle>
    <vehicle id="66506415" type="pkw" depart="109">
        <route edges="31864804 200818108#0 241660955#0 241660955#4 241660955#6 241660955#7 241660955#10 -4045330" />
    </vehicle>
    <vehicle id="7480896" type="pkw" depart="110">
        <route edges="31864804 200818108#0 241660955#0 -41910186" />
    </vehicle>
    <vehicle id="82253681" type="pkw" depart="111">
        <route edges="241660957#0 -200818108#1 -31864804" />
    </vehicle>
    <vehicle id="59898197" type="pkw" depart="112">
        <route edges="319261593#12 319261593#15 319261593#16 4145590#0" />
    </vehicle>
    <vehicle id="72648092" type="pkw" depart="113">
        <route edges="4999334 -241660955#5 -241660955#3 -200818108#1 -31864804" />
    </vehicle>
    <vehicle id="87399537" type="pkw" depart="113">
        <route edges="241660957#0 241660955#0 241660955#4 241660955#6 241660955#7 -4045329#5 4045329#5 241660955#10 -4045330" />
    </vehicle>
    <vehicle id="21643556" type="pkw" depart="119">
        <route edges="-5229966#3 319261593#15 319261593#16 -200818108#1 -31864804" />
    </vehicle>
    <vehicle id="77964548" type="pkw" depart="121">
        <route edges="31864804 200818108#0 4999331#0" />
    </vehicle>
    <vehicle id="36993891" type="pkw" depart="121">
        <route edges="241660957#0 4999331#0" />
    </vehicle>
    <vehicle id="80654338" type="pkw" depart="122">
        <route edges="41910186 -241660955#3 -200818108#1 -31864804" />
    </vehicle>
    <vehicle id="99668528" type="pkw" depart="124">
        <route edges="319261593#12 319261593#15 319261593#16 241660955#0 241660955#4 241660955#6 241660955#7 -241660955#9 -241660955#6 -4999334" />
    </vehicle>
    <vehicle id="77163100" type="pkw" depart="124">
        <route edges="4045329#5 -241660955#9 4045332#0" />
    </vehicle>
    <vehicle id="81285928" type="pkw" depart="125">
        <route edges="31864804 -31864804" />
    </vehicle>
    <vehicle id="90332905" type="pkw" depart="125">
        <route edges="41910186 -241660955#3 4145590#0" />
    </vehicle>
    <vehicle id="28345499" type="pkw" depart="126">
        <route edges="-41910185#2 -4045329#5" />
    </vehicle>
    <vehicle id="39569105" type="pkw" depart="130">
        <route edges="41910184 241660955#13 4145589#0" />
    </vehicle>
    <vehicle id="71994441" type="pkw" depart="133">
        <route edges="241660957#0 241660955#0 -41910186" />
    </vehicle>
    <vehicle id="68006563" type="pkw" depart="134">
        <route edges="-41910185#2 -4045329#5" />
    </vehicle>
    <vehicle id="15317921" type="pkw" depart="136">
        <route edges="241660957#0 4999331#0" />
    </vehicle>
    <vehicle id="13472332" type="pkw" depart="136">
        <route edges="4999334 -241660955#5 -241660955#3 -200818108#1 -31864804" />
    </vehicle>
    <vehicle id="38452224" type="pkw" depart="138">
        <route edges="241660957#0 4999331#0" />
    </vehicle>
    <vehicle id="29839553" type="pkw" depart="140">
        <route edges="-31800061#0 -41910186" />
    </vehicle>
    <vehicle id="9929447" type="pkw" depart="141">
        <route edges="4999334 -241660955#5 -241660955#3 4145590#0" />
    </vehicle>
    <vehicle id="3958647" type="pkw" depart="141">
        <route edges="-241660955#17 -241660955#16 -241660955#13 -41910184" />
    </vehicle>
    <vehicle id="62425115" type="pkw" depart="142">
        <route edges="319261593#12 319261593#15 8197886#0 -31864804" />
    </vehicle>
    <vehicle id="86513414" type="pkw" depart="143">
        <route edges="31864804 200818108#0 4999331#0" />
    </vehicle>
    <vehicle id="89091020" type="pkw" depart="145">
        <route edges="-130160207#0 241660955#17" />
    </vehicle>
    <vehicle id="34819608" type="pkw" depart="146">
        <route edges="31864804 -31864804" />
    </vehicle>
    <vehicle id="4705696" type="pkw" depart="146">
        <route edges="319261593#12 319261593#15 319261593#16 4145590#0" />
    </vehicle>
    <vehicle id="86556325" type="pkw" depart="149">
        <route edges="31864804 200818108#0 4999331#0" />
    </vehicle>
    <vehicle id="99739513" type="pkw" depart="150">
        <route edges="241660957#0 4999331#0" />
    </vehicle>
    <vehicle id="49127978" type="pkw" depart="151">
        <route edges="-130160207#0 241660955#17 -241660955#17 -241660955#16 -241660955#13 -41910184" />
    </vehicle>
    <vehicle id="26263593" type="pkw" depart="151">
        <route edges="-241660955#17 -241660955#16 -241660955#13 -241660955#12 -241660955#10 -241660955#9 -241660955#6 -241660955#5 -241660955#3 -200818108#1 -31864804" />
    </vehicle>
    <vehicle id="99847786" type="pkw" depart="152">
        <route edges="241660957#0 4999331#0" />
    </vehicle>
    <vehicle id="32797474" type="pkw" depart="153">
        <route edges="31864804 200818108#0 241660955#0 -41910186" />
    </vehicle>
    <vehicle id="98106645" type="pkw" depart="155">
        <route edges="241660957#0 4999331#0" />
    </vehicle>
    <vehicle id="33661413" type="pkw" depart="156">
        <route edges="241660957#0 4999331#0" />
    </vehicle>
    <vehicle id="78469633" type="pkw" depart="157">
        <route edges="31864804 200818108#0 4999331#0" />
    </vehicle>
    <vehicle id="61605173" type="pkw" depart="159">
        <route edges="-5229966#3 319261593#15 319261593#16 241660955#0 241660955#4 241660955#6 4045332#0" />
    </vehicle>
    <vehicle id="31825821" type="pkw" depart="159">
        <route edges="4045329#5 -241660955#9 -241660955#6 -241660955#5 -241660955#3 4145590#0" />
    </vehicle>
    <vehicle id="67519643" type="pkw" depart="160">
        <route edges="241660957#0 241660955#0 241660955#4 241660955#6 241660955#7 -241660955#9 -241660955#6 -241660955#5 -41910186" />
    </vehicle>
    <vehicle id="34189773" type="pkw" depart="160">
        <route edges="-31800061#0 241660955#4 241660955#6 241660955#7 241660955#10 241660955#11 241660955#13 4145589#0" />
    </vehicle>
    <vehicle id="80272482" type="pkw" depart="161">
        <route edges="-31800061#0 241660955#4 241660955#6 241660955#7 241660955#10 241660955#11 -41910184" />
    </vehicle>
    <vehicle id="80243344" type="pkw" depart="163">
        <route edges="241660957#0 4999331#0" />
    </vehicle>
    <vehicle id="62806475" type="pkw" depart="164">
        <route edges="31864804 200818108#0 4145590#0" />
    </vehicle>
    <vehicle id="70073201" type="pkw" depart="165">
        <route edges="31864804 200818108#0 241660955#0 241660955#4 241660955#6 4045332#0" />
    </vehicle>
    <vehicle id="89876649" type="pkw" depart="168">
        <route edges="241660957#0 4999331#0" />
    </vehicle>
    <vehicle id="28033344" type="pkw" depart="170">
        <route edges="241660957#0 4999331#0" />
    </vehicle>
    <vehicle id="83212020" type="pkw" depart="170">
        <route edges="-5229966#3 319261593#15 319261593#16 241660955#0 241660955#4 241660955#6 241660955#7 41910185#0" />
    </vehicle>
    <vehicle id="46644705" type="pkw" depart="174">
        <route edges="4045329#5 241660955#10 241660955#11 241660955#13 241660955#14 130160207#0 -130160207#0 -241660955#16 -241660955#13 -41910184" />
    </vehicle>
    <vehicle id="78806965" type="pkw" depart="174">
        <route edges="41910186 -241660955#3 4145590#0" />
    </vehicle>
    <vehicle id="80778941" type="pkw" depart="174">
        <route edges="-241660955#17 -241660955#16 -241660955#13 -41910184" />
    </vehicle>
    <vehicle id="7175988" type="pkw" depart="175">
        <route edges="241660957#0 4999331#0" />
    </vehicle>
    <vehicle id="81432568" type="pkw" depart="176">
        <route edges="319261593#12 319261593#15 319261593#16 4145590#0" />
    </vehicle>
    <vehicle id="35874158" type="pkw" depart="178">
        <route edges="31864804 200818108#0 241660955#0 241660955#4 241660955#6 241660955#7 241660955#10 -4045330" />
    </vehicle>
    <vehicle id="79395110" type="pkw" depart="179">
        <route edges="-31800061#0 241660955#4 241660955#6 241660955#7 241660955#10 241660955#11 -41910184" />
    </vehicle>
    <vehicle id="9602653" type="pkw" depart="182">
        <route edges="4045330 241660955#11 241660955#13 241660955#14 241660955#17" />
    </vehicle>
    <vehicle id="13448048" type="pkw" depart="182">
        <route edges="31864804 200818108#0 4145590#0" />
    </vehicle>
    <vehicle id="91039787" type="pkw" depart="182">
        <route edges="4999334 -241660955#5 31800061#0" />
    </vehicle>
    <vehicle id="92130553" type="pkw" depart="184">
        <route edges="31864804 200818108#0 4999331#0" />
    </vehicle>
    <vehicle id="57656058" type="pkw" depart="186">
        <route edges="31864804 200818108#0 241660955#0 -41910186" />
    </vehicle>
    <vehicle id="99321835" type="pkw" depart="186">
        <route edges="31864804 200818108#0 241660955#0 241660955#4 241660955#6 -241660955#6 -4999334" />
    </vehicle>
    <vehicle id="43221498" type="pkw" depart="186">
        <route edges="319261593#12 319261593#15 319261593#16 4145590#0" />
    </vehicle>
    <vehicle id="71293092" type="pkw" depart="188">
        <route edges="4045330 241660955#11 241660955#13 241660955#14 241660955#17" />
    </vehicle>
    <vehicle id="34545057" type="pkw" depart="188">
        <route edges="4999334 241660955#6 -241660955#6 -241660955#5 -241660955#3 -200818108#1 -31864804" />
    </vehicle>
    <vehicle id="3306189" type="pkw" depart="191">
        <route edges="4045329#5 -241660955#9 -241660955#6 -241660955#5 31800061#0" />
    </vehicle>
    <vehicle id="32068281" type="pkw" depart="194">
        <route edges="241660957#0 -200818108#1 -31864804" />
    </vehicle>
    <vehicle id="60609466" type="pkw" depart="195">
        <route edges="241660957#0 4999331#0" />
    </vehicle>
    <vehicle id="27405480" type="pkw" depart="199">
        <route edges="241660957#0 4999331#0" />
    </vehicle>
    <vehicle id="32377610" type="pkw" depart="200">
        <route edges="31864804 200818108#0 4999331#0" />
    </vehicle>
    <vehicle id="59946083" type="pkw" depart="201">
        <route edges="-5229966#3 319261593#15 319261593#16 241660955#0 241660955#4 241660955#6 4045332#0" />
    </vehicle>
    <vehicle id="58410821" type="pkw" depart="201">
        <route edges="41910186 31800061#0" />
    </vehicle>
    <vehicle id="76944192" type="pkw" depart="201">
        <route edges="241660957#0 -200818108#1 -31864804" />
    </vehicle>
    <vehicle id="61596070" type="pkw" depart="202">
        <route edges="241660957#0 4999331#0" />
    </vehicle>
    <vehicle id="7863691" type="pkw" depart="203">
        <route edges="-241660955#17 -241660955#16 -241660955#13 -241660955#12 -241660955#10 -241660955#9 -241660955#6 -241660955#5 -241660955#3 241660955#0 -41910186" />
    </vehicle>
    <vehicle id="34916334" type="pkw" depart="204">
        <route edges="241660957#0 4999331#0" />
    </vehicle>
    <vehicle id="71842600" type="pkw" depart="205">
        <route edges="31864804 200818108#0 4999331#0" />
    </vehicle>
    <vehicle id="29015398" type="pkw" depart="206">
        <route edges="241660957#0 4999331#0" />
    </vehicle>
    <vehicle id="6966304" type="pkw" depart="206">
        <route edges="-241660955#17 -241660955#16 -241660955#13 -41910184" />
    </vehicle>
    <vehicle id="81011280" type="pkw" depart="208">
        <route edges="4045329#5 41910185#0" />
    </vehicle>
    <vehicle id="20043075" type="pkw" depart="208">
        <route edges="319261593#12 319261593#15 319261593#16 4145590#0" />
    </vehicle>
    <vehicle id="76086919" type="pkw" depart="209">
        <route edges="4045330 241660955#11 -41910184" />
    </vehicle>
    <vehicle id="73796490" type="pkw" depart="211">
        <route edges="-130160207#0 -241660955#16 -241660955#13 -41910184" />
    </vehicle>
    <vehicle id="87192342" type="pkw" depart="212">
        <route edges="241660957#0 4999331#0" />
    </vehicle>
    <vehicle id="90352798" type="pkw" depart="212">
        <route edges="41910186 -241660955#3 4145590#0" />
    </vehicle>
    <vehicle id="18469980" type="pkw" depart="217">
        <route edges="4045329#5 -241660955#9 -241660955#6 -241660955#5 -241660955#3 4999331#0" />
    </vehicle>
    <vehicle id="26595952" type="pkw" depart="217">
        <route edges="31864804 200818108#0 241660955#0 241660955#4 241660955#6 241660955#7 241660955#10 241660955#11 -41910184" />
    </vehicle>
    <vehicle id="92781121" type="pkw" depart="221">
        <route edges="319261593#12 319261593#15 319261593#16 4145590#0" />
    </vehicle>
    <vehicle id="36186911" type="pkw" depart="221">
        <route edges="31864804 200818108#0 241660955#0 241660955#4 241660955#6 241660955#7 241660955#10 241660955#11 -41910184" />
    </vehicle>
    <vehicle id="26832942" type="pkw" depart="221">
        <route edges="31864804 200818108#0 241660955#0 241660955#4 241660955#6 4045332#0" />
    </vehicle>
    <vehicle id="40628929" type="pkw" depart="223">
        <route edges="-130160207#0 -241660955#16 -241660955#13 -41910184" />
    </vehicle>
    <vehicle id="89016913" type="pkw" depart="225">
        <route edges="-241660955#17 -241660955#16 -241660955#13 -41910184" />
    </vehicle>
    <vehicle id="30936708" type="pkw" depart="226">
        <route edges="31864804 200818108#0 241660955#0 -41910186" />
    </vehicle>
    <vehicle id="40620324" type="pkw" depart="226">
        <route edges="4045330 241660955#11 241660955#13 241660955#14 241660955#17" />
    </vehicle>
    <vehicle id="78271638" type="pkw" depart="227">
        <route edges="241660957#0 4999331#0" />
    </vehicle>
    <vehicle id="73038482" type="pkw" depart="227">
        <route edges="-130160207#0 -241660955#16 -241660955#13 -41910184" />
    </vehicle>
    <vehicle id="19779659" type="pkw" depart="227">
        <route edges="241660957#0 -200818108#1 -31864804" />
    </vehicle>
    <vehicle id="64535317" type="pkw" depart="228">
        <route edges="319261593#12 319261593#15 319261593#16 241660955#0 241660955#4 241660955#6 241660955#7 241660955#10 241660955#11 241660955#13 241660955#14 241660955#17" />
    </vehicle>
    <vehicle id="65411766" type="pkw" depart="228">
        <route edges="4999334 -241660955#5 -241660955#3 -200818108#1 -31864804" />
    </vehicle>
    <vehicle id="36016242" type="pkw" depart="229">
        <route edges="31864804 200818108#0 4999331#0" />
    </vehicle>
    <vehicle id="26312297" type="pkw" depart="229">
        <route edges="-241660955#17 -241660955#16 -241660955#13 -241660955#12 -241660955#10 -241660955#9 -241660955#6 -241660955#5 -241660955#3 -200818108#1 -31864804" />
    </vehicle>
    <vehicle id="70991976" type="pkw" depart="230">
        <route edges="-241660955#17 -241660955#16 -241660955#13 -41910184" />
    </vehicle>
    <vehicle id="47803648" type="pkw" depart="230">
        <route edges="-130160207#0 130160207#0 -130160207#0 -241660955#16 -241660955#13 -241660955#12 -241660955#10 241660955#10 241660955#11 241660955#13 241660955#14 241660955#17" />
    </vehicle>
    <vehicle id="32588568" type="pkw" depart="233">
        <route edges="241660957#0 4999331#0" />
    </vehicle>
    <vehicle id="25648650" type="pkw" depart="241">
        <route edges="319261593#12 319261593#15 319261593#16 -200818108#1 -31864804" />
    </vehicle>
    <vehicle id="98774273" type="pkw" depart="242">
        <route edges="41910184 -241660955#12 -241660955#10 241660955#10 241660955#11 241660955#13 241660955#14 241660955#17" />
    </vehicle>
    <vehicle id="50620711" type="pkw" depart="242">
        <route edges="241660957#0 4999331#0" />
    </vehicle>
    <vehicle id="84032644" type="pkw" depart="243">