<?xml version='1.0' encoding='utf-8'?>
<routes>
    <vType id="pkw" vClass="passenger" speedDev="0.1" length="4.3" minGap="1.5" />
    <vehicle id="37832808" type="pkw" depart="0">
        <route edges="-41910185#2 -4045329#5" />
    </vehicle>
    <vehicle id="4030912" type="pkw" depart="1">
        <route edges="-241660955#17 -241660955#16 -241660955#13 -241660955#12 -241660955#10 -241660955#9 -241660955#6 -241660955#5 -241660955#3 -200818108#1 -31864804" />
    </vehicle>
    <vehicle id="68904968" type="pkw" depart="1">
        <route edges="241660957#0 4999331#0" />
    </vehicle>
    <vehicle id="59919663" type="pkw" depart="2">
        <route edges="-241660955#17 -241660955#16 -241660955#13 -241660955#12 -241660955#10 -241660955#9 -241660955#6 -241660955#5 -241660955#3 -200818108#1 -31864804" />
    </vehicle>
    <vehicle id="67291188" type="pkw" depart="2">
        <route edges="319261593#12 319261593#15 319261593#16 4145590#0" />
    </vehicle>
    <vehicle id="70751306" type="pkw" depart="4">
        <route edges="31864804 200818108#0 4999331#0" />
    </vehicle>
    <vehicle id="77559597" type="pkw" depart="6">
        <route edges="241660957#0 4145590#0" />
    </vehicle>
    <vehicle id="44348432" type="pkw" depart="6">
        <route edges="31864804 200818108#0 4999331#0" />
    </vehicle>
    <vehicle id="21708161" type="pkw" depart="7">
        <route edges="241660957#0 4999331#0" />
    </vehicle>
    <vehicle id="94884181" type="pkw" depart="9">
        <route edges="-241660955#17 -241660955#16 -241660955#13 -41910184" />
    </vehicle>
    <vehicle id="41807186" type="pkw" depart="12">
        <route edges="-241660955#17 130160207#0" />
    </vehicle>
    <vehicle id="20961616" type="pkw" depart="12">
        <route edges="241660957#0 -200818108#1 -31864804" />
    </vehicle>
    <vehicle id="92848784" type="pkw" depart="15">
        <route edges="-5229966#3 319261593#15 319261593#16 4999331#0" />
    </vehicle>
    <vehicle id="36445705" type="pkw" depart="15">
        <route edges="241660957#0 4999331#0" />
    </vehicle>
    <vehicle id="59550063" type="pkw" depart="16">
        <route edges="41910184 241660955#13 4145589#0" />
    </vehicle>
    <vehicle id="63982545" type="pkw" depart="16">
        <route edges="241660957#0 4999331#0" />
    </vehicle>
    <vehicle id="1574403" type="pkw" depart="18">
        <route edges="-130160207#0 -241660955#16 -241660955#13 -41910184" />
    </vehicle>
    <vehicle id="63955722" type="pkw" depart="18">
        <route edges="319261593#12 319261593#15 319261593#16 241660955#0 241660955#4 241660955#6 241660955#7 241660955#10 241660955#11 241660955#13 241660955#14 241660955#17" />
    </vehicle>
    <vehicle id="14569335" type="pkw" depart="19">
        <route edges="41910186 -241660955#3 4145590#0" />
    </vehicle>
    <vehicle id="16102927" type="pkw" depart="20">
        <route edges="319261593#12 319261593#15 319261593#16 4145590#0" />
    </vehicle>
    <vehicle id="30524409" type="pkw" depart="22">
        <route edges="41910186 31800061#0" />
    </vehicle>
    <vehicle id="11968785" type="pkw" depart="23">
        <route edges="-241660955#17 -241660955#16 -241660955#13 -241660955#12 -241660955#10 -241660955#9 -241660955#6 -4999334" />
    </vehicle>
    <vehicle id="8907079" type="pkw" depart="23">
        <route edges="-241660955#17 -241660955#16 -241660955#13 -41910184" />
    </vehicle>
    <vehicle id="17523404" type="pkw" depart="24">
        <route edges="241660957#0 4999331#0" />
    </vehicle>
    <vehicle id="60166593" type="pkw" depart="25">
        <route edges="-5229966#3 319261593#15 319261593#16 4999331#0" />
    </vehicle>
    <vehicle id="47185462" type="pkw" depart="25">
        <route edges="-241660955#17 -241660955#16 -241660955#13 -241660955#12 -241660955#10 -241660955#9 -241660955#6 -241660955#5 -241660955#3 -200818108#1 -31864804" />
    </vehicle>
    <vehicle id="89805362" type="pkw" depart="26">
        <route edges="241660957#0 241660955#0 241660955#4 -4999334" />
    </vehicle>
    <vehicle id="36232747" type="pkw" depart="26">
        <route edges="-130160207#0 -241660955#16 -241660955#13 -41910184" />
    </vehicle>
    <vehicle id="55602129" type="pkw" depart="27">
        <route edges="241660957#0 4999331#0" />
    </vehicle>
    <vehicle id="36181413" type="pkw" depart="28">
        <route edges="41910184 -241660955#12 -241660955#10 -241660955#9 4045332#0" />
    </vehicle>
    <vehicle id="11013475" type="pkw" depart="29">
        <route edges="-130160207#0 241660955#17 -241660955#17 -241660955#16 -241660955#13 -41910184" />
    </vehicle>
    <vehicle id="49125882" type="pkw" depart="29">
        <route edges="241660957#0 4999331#0" />
    </vehicle>
    <vehicle id="50916300" type="pkw" depart="30">
        <route edges="241660957#0 4999331#0" />
    </vehicle>
    <vehicle id="35472076" type="pkw" depart="32">
        <route edges="31864804 200818108#0 4145590#0" />
    </vehicle>
    <vehicle id="43960247" type="pkw" depart="34">
        <route edges="-130160207#0 241660955#17" />
    </vehicle>
    <vehicle id="12319099" type="pkw" depart="36">
        <route edges="241660957#0 4999331#0" />
    </vehicle>
    <vehicle id="25272850" type="pkw" depart="37">
        <route edges="241660957#0 -200818108#1 -31864804" />
    </vehicle>
    <vehicle id="61161424" type="pkw" depart="38">
        <route edges="241660955#4 -241660955#5 -241660955#3 -200818108#1 -31864804" />
    </vehicle>
    <vehicle id="65365052" type="pkw" depart="40">
        <route edges="-31800061#0 -41910186" />
    </vehicle>
    <vehicle id="97490650" type="pkw" depart="40">
        <route edges="4045329#5 41910185#0" />
    </vehicle>
    <vehicle id="56279990" type="pkw" depart="40">
        <route edges="241660957#0 4999331#0" />
    </vehicle>
    <vehicle id="23179828" type="pkw" depart="41">
        <route edges="4999334 241660955#6 -241660955#6 -241660955#5 31800061#0" />
    </vehicle>
    <vehicle id="66367907" type="pkw" depart="42">
        <route edges="241660957#0 4999331#0" />
    </vehicle>
    <vehicle id="24027404" type="pkw" depart="44">
        <route edges="319261593#12 319261593#15 319261593#16 241660955#0 241660955#4 241660955#6 241660955#7 241660955#10 241660955#11 241660955#13 241660955#14 241660955#17" />
    </vehicle>
    <vehicle id="71244652" type="pkw" depart="45">
        <route edges="4045329#5 41910185#0" />
    </vehicle>
    <vehicle id="24347933" type="pkw" depart="47">
        <route edges="241660957#0 4999331#0" />
    </vehicle>
    <vehicle id="64974714" type="pkw" depart="50">
        <route edges="-5229966#3 319261593#15 319261593#16 4145590#0" />
    </vehicle>
    <vehicle id="23778674" type="pkw" depart="52">
        <route edges="-41910185#2 -4045329#5" />
    </vehicle>
    <vehicle id="61485019" type="pkw" depart="52">
        <route edges="41910184 241660955#13 241660955#14 -241660955#16 4145589#0" />
    </vehicle>
    <vehicle id="71262291" type="pkw" depart="53">
        <route edges="-241660955#17 -241660955#16 -241660955#13 -241660955#12 -241660955#10 -241660955#9 -241660955#6 -241660955#5 -241660955#3 4999331#0" />
    </vehicle>
    <vehicle id="33155309" type="pkw" depart="56">
        <route edges="241660955#6 241660955#7 241660955#10 241660955#11 241660955#13 241660955#14 241660955#17" />
    </vehicle>
    <vehicle id="34562444" type="pkw" depart="58">
        <route edges="31864804 200818108#0 4999331#0" />
    </vehicle>
    <vehicle id="48850527" type="pkw" depart="58">
        <route edges="-130160207#0 -241660955#16 -241660955#13 -41910184" />
    </vehicle>
    <vehicle id="11446553" type="pkw" depart="59">
        <route edges="319261593#12 319261593#15 319261593#16 4145590#0" />
    </vehicle>
    <vehicle id="64392658" type="pkw" depart="60">
        <route edges="241660955#4 -241660955#5 31800061#0" />
    </vehicle>
    <vehicle id="71672531" type="pkw" depart="60">
        <route edges="-31800061#0 241660955#4 241660955#6 241660955#7 241660955#10 241660955#11 241660955#13 241660955#14 -241660955#16" />
    </vehicle>
    <vehicle id="4366279" type="pkw" depart="61">
        <route edges="41910186 -241660955#3 -200818108#1 -31864804" />
    </vehicle>
    <vehicle id="1791904" type="pkw" depart="61">
        <route edges="-241660955#17 -241660955#16 -241660955#13 -41910184" />
    </vehicle>
    <vehicle id="62773626" type="pkw" depart="63">
        <route edges="-130160207#0 241660955#17" />
    </vehicle>
    <vehicle id="43858167" type="pkw" depart="64">
        <route edges="-5229966#3 319261593#15 319261593#16 4145590#0" />
    </vehicle>
    <vehicle id="7246689" type="pkw" depart="64">
        <route edges="31864804 200818108#0 4145590#0" />
    </vehicle>
    <vehicle id="95075444" type="pkw" depart="65">
        <route edges="4999334 -241660955#5 -241660955#3 -200818108#1 -31864804" />
    </vehicle>
    <vehicle id="17181299" type="pkw" depart="65">
        <route edges="241660957#0 4999331#0" />
    </vehicle>
    <vehicle id="80275369" type="pkw" depart="67">
        <route edges="41910184 -241660955#12 -241660955#10 -241660955#9 -241660955#6 -241660955#5 31800061#0" />
    </vehicle>
    <vehicle id="13787104" type="pkw" depart="67">
        <route edges="241660957#0 4999331#0" />
    </vehicle>
    <vehicle id="15577592" type="pkw" depart="68">
        <route edges="-241660955#17 -241660955#16 -241660955#13 -41910184" />
    </vehicle>
    <vehicle id="97359866" type="pkw" depart="68">
        <route edges="319261593#12 319261593#15 319261593#16 4999331#0" />
    </vehicle>
    <vehicle id="78008488" type="pkw" depart="69">
        <route edges="-5229966#3 319261593#15 319261593#16 4145590#0" />
    </vehicle>
    <vehicle id="17086653" type="pkw" depart="70">
        <route edges="41910184 -241660955#12 -241660955#10 -241660955#9 -241660955#6 -241660955#5 31800061#0" />
    </vehicle>
    <vehicle id="51131109" type="pkw" depart="70">
        <route edges="31864804 200818108#0 241660955#0 241660955#4 241660955#6 241660955#7 241660955#10 241660955#11 241660955#13 -241660955#13 -41910184" />
    </vehicle>
    <vehicle id="87137842" type="pkw" depart="71">
        <route edges="-31800061#0 31800061#0" />
    </vehicle>
    <vehicle id="46259479" type="pkw" depart="71">
        <route edges="-241660955#17 -241660955#16 -241660955#13 -241660955#12 -241660955#10 -241660955#9 -241660955#6 -241660955#5 -241660955#3 -200818108#1 -31864804" />
    </vehicle>
    <vehicle id="15921436" type="pkw" depart="72">
        <route edges="-31800061#0 241660955#4 241660955#6 241660955#7 241660955#10 241660955#11 241660955#13" />
    </vehicle>
    <vehicle id="84050469" type="pkw" depart="73">
        <route edges="41910186 -241660955#3 4145590#0" />
    </vehicle>
    <vehicle id="39795468" type="pkw" depart="73">
        <route edges="241660957#0 4999331#0" />
    </vehicle>
    <vehicle id="92682297" type="pkw" depart="74">
        <route edges="241660957#0 4999331#0" />
    </vehicle>
    <vehicle id="76532076" type="pkw" depart="75">
        <route edges="-31800061#0 -41910186" />
    </vehicle>
    <vehicle id="29278828" type="pkw" depart="75">
        <route edges="4045329#5 -241660955#9 -241660955#6 -241660955#5 -241660955#3 -200818108#1 -31864804" />
    </vehicle>
    <vehicle id="35376525" type="pkw" depart="75">
        <route edges="-41910185#2 -4045329#5" />
    </vehicle>
    <vehicle id="95128886" type="pkw" depart="77">
        <route edges="319261593#12 319261593#15 8197886#0 200818108#0 4145590#0" />
    </vehicle>
    <vehicle id="95273884" type="pkw" depart="81">
        <route edges="31864804 200818108#0 4999331#0" />
    </vehicle>
    <vehicle id="12887909" type="pkw" depart="81">
        <route edges="41910184 241660955#13 241660955#14 -241660955#16 4145589#0" />
    </vehicle>
    <vehicle id="16814491" type="pkw" depart="81">
        <route edges="-41910185#2 241660955#10 241660955#11 -41910184 41910184" />
    </vehicle>
    <vehicle id="27152401" type="pkw" depart="83">
        <route edges="319261593#12 319261593#15 319261593#16 241660955#0 241660955#4 241660955#6 4045332#0" />
    </vehicle>
    <vehicle id="35966611" type="pkw" depart="84">
        <route edges="241660957#0 241660955#0 241660955#4 241660955#6 241660955#7 -4045329#5" />
    </vehicle>
    <vehicle id="78703652" type="pkw" depart="84">
        <route edges="319261593#12 319261593#15 319261593#16 4145590#0" />
    </vehicle>
    <vehicle id="1956684" type="pkw" depart="88">
        <route edges="4045329#5 241660955#10 -4045330" />
    </vehicle>
    <vehicle id="11566676" type="pkw" depart="88">
        <route edges="31864804 200818108#0 4999331#0" />
    </vehicle>
    <vehicle id="23392348" type="pkw" depart="88">
        <route edges="-241660955#17 -241660955#16 -241660955#13 -241660955#12 -241660955#10 -241660955#9 -241660955#6 -241660955#5 -241660955#3 -200818108#1 -31864804" />
    </vehicle>
    <vehicle id="98145903" type="pkw" depart="89">
        <route edges="-130160207#0 -241660955#16 -241660955#13 -41910184" />
    </vehicle>
    <vehicle id="36893450" type="pkw" depart="90">
        <route edges="241660957#0 4999331#0" />
    </vehicle>
    <vehicle id="61092674" type="pkw" depart="90">
        <route edges="319261593#12 319261593#15 319261593#16 4145590#0" />
    </vehicle>
    <vehicle id="68938124" type="pkw" depart="93">
        <route edges="-41910185#2 -4045329#5" />
    </vehicle>
    <vehicle id="63069086" type="pkw" depart="96">
        <route edges="319261593#12 319261593#15 319261593#16 4145590#0" />
    </vehicle>
    <vehicle id="70505486" type="pkw" depart="96">
        <route edges="31864804 200818108#0 241660955#0 241660955#4 241660955#6 241660955#7 241660955#10 241660955#11 -41910184" />
    </vehicle>
    <vehicle id="7908390" type="pkw" depart="97">
        <route edges="41910186 -241660955#3 -200818108#1 -31864804" />
    </vehicle>
    <vehicle id="31677604" type="pkw" depart="99">
        <route edges="-130160207#0 241660955#17 -241660955#17 241660955#17" />
    </vehicle>
    <vehicle id="62855025" type="pkw" depart="100">
        <route edges="241660957#0 4999331#0" />
    </vehicle>
    <vehicle id="93087065" type="pkw" depart="101">
        <route edges="31864804 -31864804" />
    </vehicle>
    <vehicle id="68847805" type="pkw" depart="102">
        <route edges="41910186 -241660955#3 4145590#0" />
    </vehicle>
    <vehicle id="80442372" type="pkw" depart="103">
        <route edges="4999334 -241660955#5 -241660955#3 -200818108#1 -31864804" />
    </vehicle>
    <vehicle id="52856694" type="pkw" depart="107">
        <route edges="-241660955#17 -241660955#16 -241660955#13 -41910184" />
    </vehicle>
    <vehicle id="14757839" type="pkw" depart="108">
        <route edges="4045329#5 41910185#0" />
    </vehicle>
    <vehicle id="58919901" type="pkw" depart="109">
        <route edges="31864804 200818108#0 241660955#0 241660955#4 241660955#6 241660955#7 241660955#10 241660955#11 241660955#13 241660955#14 241660955#17" />
    </vehicle>
    <vehicle id="69995988" type="pkw" depart="111">
        <route edges="31864804 200818108#0 4145590#0" />
    </vehicle>
    <vehicle id="96754480" type="pkw" depart="112">
        <route edges="241660957#0 4999331#0" />
    </vehicle>
    <vehicle id="45266507" type="pkw" depart="112">
        <route edges="-31800061#0 -41910186" />
    </vehicle>
    <vehicle id="23044948" type="pkw" depart="114">
        <route edges="241660957#0 4999331#0" />
    </vehicle>
    <vehicle id="89709438" type="pkw" depart="117">
        <route edges="4045330 241660955#11 -41910184" />
    </vehicle>
    <vehicle id="43498546" type="pkw" depart="123">
        <route edges="31864804 200818108#0 4145590#0" />
    </vehicle>
    <vehicle id="90169787" type="pkw" depart="124">
        <route edges="31864804 200818108#0 241660955#0 -41910186" />
    </vehicle>
    <vehicle id="16203090" type="pkw" depart="124">
        <route edges="241660957#0 4999331#0" />
    </vehicle>
    <vehicle id="18572459" type="pkw" depart="125">
        <route edges="41910186 -241660955#3 -200818108#1 -31864804" />
    </vehicle>
    <vehicle id="28153529" type="pkw" depart="125">
        <route edges="4999334 -241660955#5 -241660955#3 -200818108#1 -31864804" />
    </vehicle>
    <vehicle id="30252945" type="pkw" depart="127">
        <route edges="31864804 200818108#0 4145590#0" />
    </vehicle>
    <vehicle id="82986084" type="pkw" depart="127">
        <route edges="241660957#0 4999331#0" />
    </vehicle>
    <vehicle id="96165480" type="pkw" depart="129">
        <route edges="31864804 200818108#0 4999331#0" />
    </vehicle>
    <vehicle id="44657953" type="pkw" depart="129">
        <route edges="4999331#0" />
    </vehicle>
    <vehicle id="41609250" type="pkw" depart="130">
        <route edges="4045330 241660955#11 241660955#13 4145589#0" />
    </vehicle>
    <vehicle id="80311748" type="pkw" depart="130">
        <route edges="241660957#0 4999331#0" />
    </vehicle>
    <vehicle id="12112784" type="pkw" depart="131">
        <route edges="241660957#0 4999331#0" />
    </vehicle>
    <vehicle id="68774250" type="pkw" depart="133">
        <route edges="319261593#12 319261593#15 8197886#0 200818108#0 4145590#0" />
    </vehicle>
    <vehicle id="8709053" type="pkw" depart="134">
        <route edges="241660955#6 4045332#0" />
    </vehicle>
    <vehicle id="20876627" type="pkw" depart="134">
        <route edges="319261593#12 319261593#15 319261593#16 -200818108#1 -31864804" />
    </vehicle>
    <vehicle id="99065769" type="pkw" depart="134">
        <route edges="241660957#0 241660955#0 241660955#4 241660955#6 -241660955#6 -4999334" />
    </vehicle>
    <vehicle id="8073456" type="pkw" depart="135">
        <route edges="241660957#0 4999331#0" />
    </vehicle>
    <vehicle id="20874540" type="pkw" depart="139">
        <route edges="-5229966#3 319261593#15 319261593#16 -200818108#1 -31864804" />
    </vehicle>
    <vehicle id="80202412" type="pkw" depart="139">
        <route edges="319261593#12 319261593#15 319261593#16 4145590#0" />
    </vehicle>
    <vehicle id="28389762" type="pkw" depart="140">
        <route edges="-31864804 31864804 200818108#0 4145590#0" />
    </vehicle>
    <vehicle id="29568724" type="pkw" depart="142">
        <route edges="-130160207#0 -241660955#16 -241660955#13 -241660955#12 241660955#11 241660955#13 241660955#14 241660955#17" />
    </vehicle>
    <vehicle id="77330857" type="pkw" depart="143">
        <route edges="31864804 -31864804" />
    </vehicle>
    <vehicle id="41995750" type="pkw" depart="143">
        <route edges="4045330" />
    </vehicle>
    <vehicle id="16740185" type="pkw" depart="143">
        <route edges="319261593#12 319261593#15 319261593#16 4145590#0" />
    </vehicle>
    <vehicle id="50465209" type="pkw" depart="143">
        <route edges="-41910186 41910186 31800061#0" />
    </vehicle>
    <vehicle id="86595373" type="pkw" depart="144">
        <route edges="241660957#0 4999331#0" />
    </vehicle>
    <vehicle id="34151797" type="pkw" depart="148">
        <route edges="241660957#0 4999331#0" />
    </vehicle>
    <vehicle id="23768902" type="pkw" depart="151">
        <route edges="241660957#0 4999331#0" />
    </vehicle>
    <vehicle id="67312937" type="pkw" depart="152">
        <route edges="4999334 -4999334" />
    </vehicle>
    <vehicle id="81076552" type="pkw" depart="153">
        <route edges="241660957#0 4999331#0" />
    </vehicle>
    <vehicle id="20784271" type="pkw" depart="154">
        <route edges="41910184 -241660955#12 -241660955#10 -241660955#9 -241660955#6 -241660955#5 31800061#0" />
    </vehicle>
    <vehicle id="75748518" type="pkw" depart="154">
        <route edges="41910184 -241660955#12 241660955#11 241660955#13 241660955#14 241660955#17" />
    </vehicle>
    <vehicle id="27588128" type="pkw" depart="156">
        <route edges="-241660955#17 -241660955#16 -241660955#13 -241660955#12 -241660955#10 -4045329#5" />
    </vehicle>
    <vehicle id="63109809" type="pkw" depart="157">
        <route edges="31864804 200818108#0 4999331#0" />
    </vehicle>
    <vehicle id="78212833" type="pkw" depart="158">
        <route edges="-241660955#17 -241660955#16 -241660955#13 -41910184" />
    </vehicle>
    <vehicle id="44904042" type="pkw" depart="163">
        <route edges="31864804 200818108#0 241660955#0 241660955#4 241660955#6 -241660955#6 -241660955#5 -241660955#3 241660955#0 241660955#4 241660955#6 4045332#0" />
    </vehicle>
    <vehicle id="21345987" type="pkw" depart="165">
        <route edges="41910184 241660955#13 241660955#14 -241660955#16 241660955#14 241660955#17" />
    </vehicle>
    <vehicle id="11435205" type="pkw" depart="167">
        <route edges="4999334 -241660955#5 -241660955#3 -200818108#1 -31864804" />
    </vehicle>
    <vehicle id="71550991" type="pkw" depart="167">
        <route edges="41910184 241660955#13 4145589#0" />
    </vehicle>
    <vehicle id="5970141" type="pkw" depart="167">
        <route edges="31864804 -31864804" />
    </vehicle>
    <vehicle id="69528417" type="pkw" depart="167">
        <route edges="241660957#0 241660955#0 -41910186" />
    </vehicle>
    <vehicle id="1737007" type="pkw" depart="170">
        <route edges="-241660955#17 -241660955#16 -241660955#13 -41910184" />
    </vehicle>
    <vehicle id="65983285" type="pkw" depart="174">
        <route edges="4999334 -4999334" />
    </vehicle>
    <vehicle id="42154154" type="pkw" depart="177">
        <route edges="241660957#0 4999331#0" />
    </vehicle>
    <vehicle id="24945523" type="pkw" depart="179">
        <route edges="31864804 200818108#0 4999331#0" />
    </vehicle>
    <vehicle id="76919747" type="pkw" depart="181">
        <route edges="241660957#0 4999331#0" />
    </vehicle>
    <vehicle id="36529363" type="pkw" depart="181">
        <route edges="-41910185#2 241660955#10 241660955#11 -41910184" />
    </vehicle>
    <vehicle id="59938630" type="pkw" depart="184">
        <route edges="319261593#12 319261593#15 319261593#16 4145590#0" />
    </vehicle>
    <vehicle id="17994056" type="pkw" depart="184">
        <route edges="-241660955#17 -241660955#16 -241660955#13 -41910184" />
    </vehicle>
    <vehicle id="56918696" type="pkw" depart="186">
        <route edges="41910184 241660955#13 4145589#0" />
    </vehicle>
    <vehicle id="62860754" type="pkw" depart="186">
        <route edges="4045329#5 -241660955#9 -241660955#6 -241660955#5 31800061#0" />
    </vehicle>
    <vehicle id="84082813" type="pkw" depart="186">
        <route edges="241660957#0 4999331#0" />
    </vehicle>
    <vehicle id="48037217" type="pkw" depart="187">
        <route edges="241660957#0 4999331#0" />
    </vehicle>
    <vehicle id="67817587" type="pkw" depart="188">
        <route edges="31864804 200818108#0 241660955#0 241660955#4 241660955#6 241660955#7 241660955#10 241660955#11 241660955#13 241660955#14 -241660955#16 -241660955#13 -41910184" />
    </vehicle>
    <vehicle id="45849887" type="pkw" depart="189">
        <route edges="31864804 -31864804" />
    </vehicle>
    <vehicle id="47722545" type="pkw" depart="189">
        <route edges="-5229966#3 319261593#15 319261593#16 4145590#0" />
    </vehicle>
    <vehicle id="43228769" type="pkw" depart="191">
        <route edges="319261593#12 319261593#15 319261593#16 4145590#0" />
    </vehicle>
    <vehicle id="56509333" type="pkw" depart="192">
        <route edges="31864804 200818108#0 241660955#0 241660955#4 241660955#6 4045332#0" />
    </vehicle>
    <vehicle id="75545127" type="pkw" depart="193">
        <route edges="41910186 -241660955#3 -200818108#1 -31864804" />
    </vehicle>
    <vehicle id="48874591" type="pkw" depart="194">
        <route edges="41910184 -241660955#12 -241660955#10 -4045329#5" />
    </vehicle>
    <vehicle id="55021887" type="pkw" depart="194">
        <route edges="241660957#0 4999331#0" />
    </vehicle>
    <vehicle id="75455198" type="pkw" depart="195">
        <route edges="31864804 200818108#0 4999331#0" />
    </vehicle>
    <vehicle id="25791075" type="pkw" depart="199">
        <route edges="-4999334" />
    </vehicle>
    <vehicle id="54713094" type="pkw" depart="201">
        <route edges="319261593#12 319261593#15 319261593#16 241660955#0 241660955#4 241660955#6 4045332#0" />
    </vehicle>
    <vehicle id="13370642" type="pkw" depart="203">
        <route edges="-41910185#2 -4045329#5" />
    </vehicle>
    <vehicle id="61955287" type="pkw" depart="203">
        <route edges="-5229966#3 319261593#15 319261593#16 4999331#0" />
    </vehicle>
    <vehicle id="56844360" type="pkw" depart="206">
        <route edges="4045329#5 41910185#0" />
    </vehicle>
    <vehicle id="88517260" type="pkw" depart="206">
        <route edges="31864804 200818108#0 241660955#0 -41910186" />
    </vehicle>
    <vehicle id="88324168" type="pkw" depart="207">
        <route edges="31864804 200818108#0 4999331#0" />
    </vehicle>
    <vehicle id="61623332" type="pkw" depart="207">
        <route edges="4045329#5 241660955#10 241660955#11 241660955#13 241660955#14 241660955#17" />
    </vehicle>
    <vehicle id="67923676" type="pkw" depart="208">
        <route edges="41910184 241660955#13 241660955#14 241660955#17" />
    </vehicle>
    <vehicle id="89925610" type="pkw" depart="209">
        <route edges="4045329#5 -241660955#9 4045332#0" />
    </vehicle>
    <vehicle id="21774902" type="pkw" depart="212">
        <route edges="31864804 200818108#0 241660955#0 241660955#4 241660955#6 241660955#7 241660955#10 241660955#11 -41910184" />
    </vehicle>
    <vehicle id="83100314" type="pkw" depart="219">
        <route edges="241660957#0 4999331#0" />
    </vehicle>
    <vehicle id="43740235" type="pkw" depart="219">
        <route edges="31864804 200818108#0 4999331#0" />
    </vehicle>
    <vehicle id="332801" type="pkw" depart="221">
        <route edges="241660957#0 4999331#0" />
    </vehicle>
    <vehicle id="18609310" type="pkw" depart="222">
        <route edges="241660957#0 4999331#0" />
    </vehicle>
    <vehicle id="97038158" type="pkw" depart="222">
        <route edges="241660957#0 4999331#0" />
    </vehicle>
    <vehicle id="49881379" type="pkw" depart="223">
        <route edges="4999334 -241660955#5 -241660955#3 4145590#0" />
    </vehicle>
    <vehicle id="74592920" type="pkw" depart="224">
        <route edges="-130160207#0 241660955#17" />
    </vehicle>
    <vehicle id="22955633" type="pkw" depart="226">
        <route edges="41910186 -241660955#3 -200818108#1 -31864804" />
    </vehicle>
    <vehicle id="86239749" type="pkw" depart="226">
        <route edges="-241660955#17 -241660955#16 -241660955#13 -41910184" />
    </vehicle>
    <vehicle id="85757166" type="pkw" depart="227">
        <route edges="241660957#0 -200818108#1 -31864804" />
    </vehicle>
    <vehicle id="85358963" type="pkw" depart="229">
        <route edges="41910186 31800061#0" />
    </vehicle>
    <vehicle id="17423327" type="pkw" depart="231">
        <route edges="319261593#12 319261593#15 8197886#0 -31864804" />
    </vehicle>
    <vehicle id="18546309" type="pkw" depart="232">
        <route edges="41910186 -241660955#3 4999331#0" />
    </vehicle>
    <vehicle id="59030148" type="pkw" depart="233">
        <route edges="41910184 -241660955#12 -241660955#10 -241660955#9 -241660955#6 -241660955#5 -241660955#3 -200818108#1 -31864804" />
    </vehicle>
    <vehicle id="32430181" type="pkw" depart="234">
        <route edges="-241660955#17 -241660955#16 -241660955#13 -241660955#12 -241660955#10 -4045329#5" />
    </vehicle>
    <vehicle id="86545021" type="pkw" depart="237">
        <route edges="241660957#0 4999331#0" />
    </vehicle>
    <vehicle id="64779966" type="pkw" depart="238">
        <route edges="-130160207#0 -241660955#16 -241660955#13 -41910184" />
    </vehicle>
    <vehicle id="24429022" type="pkw" depart="240">
        <route edges="-130160207#0 241660955#17 -241660955#17 -241660955#16 4145589#0" />
    </vehicle>
    <vehicle id="1289416" type="pkw" depart="241">
        <route edges="241660957#0 4999331#0" />
    </vehicle>
    <vehicle id="87901031" type="pkw" depart="241">
        <route edges="4045329#5 -241660955#9 -241660955#6 -241660955#5 31800061#0" />
    </vehicle>
    <vehicle id="62750553" type="pkw" depart="243">
        <route edges="4045330 241660955#11 -41910184" />
    </vehicle>
    <vehicle id="32419670" type="pkw" depart="250">
        <route edges="-241660955#17 -241660955#16 -241660955#13 -41910184" />
    </vehicle>
    <vehicle id="36317489" type="pkw" depart="250">
        <route edges="319261593#12 319261593#15 319261593#16 241660955#0 241660955#4 241660955#6 241660955#7 241660955#10 241660955#11 241660955#13 241660955#14 241660955#17" />
    </vehicle>
    <vehicle id="97009387" type="pkw" depart="251">
        <route edges="319261593#12 319261593#15 319261593#16 -200818108#1 -31864804" />
    </vehicle>
    <vehicle id="37274118" type="pkw" depart="252">
        <route edges="-241660955#17 -241660955#16 -241660955#13 -241660955#12 -241660955#10 -241660955#9 -241660955#6 -241660955#5 -241660955#3 -200818108#1 -31864804" />
    </vehicle>
    <vehicle id="33909653" type="pkw" depart="252">
        <route edges="-31800061#0 -41910186" />
    </vehicle>
    <vehicle id="43288320" type="pkw" depart="252">
        <route edges="41910186 241660955#4 241660955#6 4045332#0" />
    </vehicle>
    <vehicle id="6853783" type="pkw" depart="253">
        <route edges="-241660955#17 130160207#0 -130160207#0 241660955#17 -241660955#17 -241660955#16 -241660955#13 -41910184" />
    </vehicle>
    <vehicle id="35092289" type="pkw" depart="253">
        <route edges="-130160207#0 -241660955#16 -241660955#13 -41910184" />
    </vehicle>
    <vehicle id="99857948" type="pkw" depart="254">