<?xml version='1.0' encoding='utf-8'?>
<routes>
    <vType id="pkw" vClass="passenger" speedDev="0.1" length="4.3" minGap="1.5" />
    <vehicle id="34994387" type="pkw" depart="0">
        <route edges="-5229966#3 319261593#15 319261593#16 -200818108#1 -31864804" />
    </vehicle>
    <vehicle id="74500365" type="pkw" depart="5">
        <route edges="-5229966#3 319261593#15 319261593#16 4145590#0" />
    </vehicle>
    <vehicle id="53082863" type="pkw" depart="6">
        <route edges="319261593#12 319261593#15 319261593#16 4145590#0" />
    </vehicle>
    <vehicle id="82333924" type="pkw" depart="6">
        <route edges="4045329#5 241660955#10 -4045330" />
    </vehicle>
    <vehicle id="59071600" type="pkw" depart="8">
        <route edges="319261593#12 319261593#15 319261593#16 -200818108#1 -31864804" />
    </vehicle>
    <vehicle id="16567845" type="pkw" depart="8">
        <route edges="-241660955#17 -241660955#16 -241660955#13 -41910184" />
    </vehicle>
    <vehicle id="27560077" type="pkw" depart="9">
        <route edges="-5229966#3 319261593#15 8197886#0 200818108#0 241660955#0 241660955#4 241660955#6 241660955#7 241660955#10 241660955#11 241660955#13 241660955#14 241660955#17" />
    </vehicle>
    <vehicle id="67040187" type="pkw" depart="9">
        <route edges="-241660955#17 -241660955#16 -241660955#13 -41910184" />
    </vehicle>
    <vehicle id="3062381" type="pkw" depart="10">
        <route edges="319261593#12 319261593#15 319261593#16 -200818108#1 -31864804" />
    </vehicle>
    <vehicle id="43500517" type="pkw" depart="12">
        <route edges="4045329#5 -241660955#9 -241660955#6 -241660955#5 -241660955#3 4145590#0" />
    </vehicle>
    <vehicle id="71515806" type="pkw" depart="13">
        <route edges="-241660955#17 -241660955#16 -241660955#13 -41910184" />
    </vehicle>
    <vehicle id="16676527" type="pkw" depart="13">
        <route edges="241660955#4 -4999334" />
    </vehicle>
    <vehicle id="86829821" type="pkw" depart="15">
        <route edges="-41910185#2 -4045329#5" />
    </vehicle>
    <vehicle id="63364954" type="pkw" depart="17">
        <route edges="41910184 241660955#13 4145589#0" />
    </vehicle>
    <vehicle id="84611843" type="pkw" depart="18">
        <route edges="-31800061#0 -41910186" />
    </vehicle>
    <vehicle id="99260900" type="pkw" depart="18">
        <route edges="4045330 241660955#11 -41910184 41910184 241660955#13 -241660955#13 -41910184" />
    </vehicle>
    <vehicle id="78541618" type="pkw" depart="19">
        <route edges="4045329#5 41910185#0" />
    </vehicle>
    <vehicle id="39879867" type="pkw" depart="19">
        <route edges="-130160207#0 -241660955#16 -241660955#13 -241660955#12 -241660955#10 41910185#0" />
    </vehicle>
    <vehicle id="81723842" type="pkw" depart="19">
        <route edges="241660955#13 -241660955#13 -41910184" />
    </vehicle>
    <vehicle id="34191153" type="pkw" depart="20">
        <route edges="4045329#5 -241660955#9 -241660955#6 -241660955#5 -241660955#3 -200818108#1 -31864804" />
    </vehicle>
    <vehicle id="23595118" type="pkw" depart="23">
        <route edges="-5229966#3 319261593#15 319261593#16 4145590#0" />
    </vehicle>
    <vehicle id="97140546" type="pkw" depart="23">
        <route edges="31864804 200818108#0 4999331#0" />
    </vehicle>
    <vehicle id="75255731" type="pkw" depart="24">
        <route edges="241660957#0 4999331#0" />
    </vehicle>
    <vehicle id="28305478" type="pkw" depart="27">
        <route edges="31864804 200818108#0 241660955#0 241660955#4 -4999334" />
    </vehicle>
    <vehicle id="68390889" type="pkw" depart="28">
        <route edges="319261593#12 319261593#15 319261593#16 4145590#0" />
    </vehicle>
    <vehicle id="31655537" type="pkw" depart="30">
        <route edges="-241660955#17 -241660955#16 4145589#0" />
    </vehicle>
    <vehicle id="40388565" type="pkw" depart="30">
        <route edges="4999331#0" />
    </vehicle>
    <vehicle id="15471568" type="pkw" depart="31">
        <route edges="4999334 -241660955#5 -241660955#3 4145590#0" />
    </vehicle>
    <vehicle id="49612251" type="pkw" depart="34">
        <route edges="31864804 200818108#0 241660955#0 241660955#4 241660955#6 241660955#7 241660955#10 241660955#11 -41910184" />
    </vehicle>
    <vehicle id="37602047" type="pkw" depart="34">
        <route edges="241660957#0 4999331#0" />
    </vehicle>
    <vehicle id="74777540" type="pkw" depart="36">
        <route edges="41910186 31800061#0" />
    </vehicle>
    <vehicle id="67672379" type="pkw" depart="43">
        <route edges="-241660955#17 -241660955#16 -241660955#13 -241660955#12 -241660955#10 -4045329#5" />
    </vehicle>
    <vehicle id="57679318" type="pkw" depart="43">
        <route edges="31864804 200818108#0 241660955#0 -41910186" />
    </vehicle>
    <vehicle id="10165263" type="pkw" depart="44">
        <route edges="319261593#12 319261593#15 319261593#16 241660955#0 241660955#4 241660955#6 241660955#7 -241660955#9 -241660955#6 -4999334" />
    </vehicle>
    <vehicle id="33966560" type="pkw" depart="46">
        <route edges="319261593#12 319261593#15 319261593#16 4145590#0" />
    </vehicle>
    <vehicle id="17505848" type="pkw" depart="49">
        <route edges="319261593#12" />
    </vehicle>
    <vehicle id="75476231" type="pkw" depart="49">
        <route edges="319261593#12 319261593#15 319261593#16 -200818108#1 -31864804" />
    </vehicle>
    <vehicle id="88192548" type="pkw" depart="49">
        <route edges="241660957#0 -200818108#1 -31864804" />
    </vehicle>
    <vehicle id="64618062" type="pkw" depart="53">
        <route edges="41910186 -241660955#3 -200818108#1 -31864804" />
    </vehicle>
    <vehicle id="57744068" type="pkw" depart="55">
        <route edges="31864804 200818108#0 241660955#0 241660955#4 241660955#6 241660955#7 241660955#10 241660955#11 241660955#13 241660955#14 241660955#17" />
    </vehicle>
    <vehicle id="16493674" type="pkw" depart="56">
        <route edges="31864804 200818108#0 4999331#0" />
    </vehicle>
    <vehicle id="94044260" type="pkw" depart="57">
        <route edges="319261593#12 319261593#15 319261593#16 4145590#0" />
    </vehicle>
    <vehicle id="76934708" type="pkw" depart="58">
        <route edges="4999334 -241660955#5 -241660955#3 -200818108#1 -31864804" />
    </vehicle>
    <vehicle id="76495034" type="pkw" depart="58">
        <route edges="-41910185#2 -4045329#5" />
    </vehicle>
    <vehicle id="98396483" type="pkw" depart="59">
        <route edges="241660957#0 4999331#0" />
    </vehicle>
    <vehicle id="74079420" type="pkw" depart="60">
        <route edges="41910184 241660955#13 241660955#14 130160207#0" />
    </vehicle>
    <vehicle id="5202745" type="pkw" depart="64">
        <route edges="319261593#12 319261593#15 319261593#16 4145590#0" />
    </vehicle>
    <vehicle id="68555953" type="pkw" depart="64">
        <route edges="241660957#0 -200818108#1 -31864804" />
    </vehicle>
    <vehicle id="871572" type="pkw" depart="65">
        <route edges="41910186 31800061#0" />
    </vehicle>
    <vehicle id="80134686" type="pkw" depart="66">
        <route edges="319261593#12 319261593#15 319261593#16 4999331#0" />
    </vehicle>
    <vehicle id="74070305" type="pkw" depart="68">
        <route edges="31864804 200818108#0 4145590#0" />
    </vehicle>
    <vehicle id="12086433" type="pkw" depart="68">
        <route edges="-41910185#2 -4045329#5" />
    </vehicle>
    <vehicle id="83950548" type="pkw" depart="72">
        <route edges="-130160207#0 241660955#17" />
    </vehicle>
    <vehicle id="87041161" type="pkw" depart="72">
        <route edges="241660957#0 4999331#0" />
    </vehicle>
    <vehicle id="58200864" type="pkw" depart="74">
        <route edges="31864804 200818108#0 4145590#0" />
    </vehicle>
    <vehicle id="16456825" type="pkw" depart="75">
        <route edges="4045330 241660955#11 241660955#13 241660955#14 241660955#17" />
    </vehicle>
    <vehicle id="12441107" type="pkw" depart="77">
        <route edges="8197886#0 200818108#0 4145590#0" />
    </vehicle>
    <vehicle id="24586653" type="pkw" depart="79">
        <route edges="4045329#5 241660955#10 -4045330" />
    </vehicle>
    <vehicle id="99606813" type="pkw" depart="79">
        <route edges="-130160207#0 241660955#17" />
    </vehicle>
    <vehicle id="60663218" type="pkw" depart="80">
        <route edges="241660957#0 4999331#0" />
    </vehicle>
    <vehicle id="92747300" type="pkw" depart="81">
        <route edges="-130160207#0 -241660955#16 -241660955#13 -41910184" />
    </vehicle>
    <vehicle id="40924612" type="pkw" depart="81">
        <route edges="4045329#5 41910185#0" />
    </vehicle>
    <vehicle id="29385475" type="pkw" depart="82">
        <route edges="241660957#0 -200818108#1 -31864804" />
    </vehicle>
    <vehicle id="23580717" type="pkw" depart="82">
        <route edges="-241660955#17 -241660955#16 -241660955#13 -241660955#12 -241660955#10 -241660955#9 -241660955#6 -241660955#5 241660955#4" />
    </vehicle>
    <vehicle id="67089308" type="pkw" depart="83">
        <route edges="-241660955#17 -241660955#16 -241660955#13 -41910184" />
    </vehicle>
    <vehicle id="24799665" type="pkw" depart="83">
        <route edges="31864804 200818108#0 4145590#0" />
    </vehicle>
    <vehicle id="19836983" type="pkw" depart="84">
        <route edges="-241660955#17 -241660955#16 -241660955#13 -41910184" />
    </vehicle>
    <vehicle id="71315718" type="pkw" depart="85">
        <route edges="-241660955#17 -241660955#16 -241660955#13 -241660955#12 -241660955#10 41910185#0 -41910185#2 -241660955#9 -241660955#6 -241660955#5 -241660955#3 4145590#0" />
    </vehicle>
    <vehicle id="92456322" type="pkw" depart="86">
        <route edges="241660957#0 241660955#0 241660955#4 -241660955#5" />
    </vehicle>
    <vehicle id="79324453" type="pkw" depart="86">
        <route edges="41910184 241660955#13 241660955#14 -241660955#16 241660955#14 241660955#17" />
    </vehicle>
    <vehicle id="47052242" type="pkw" depart="86">
        <route edges="-41910185#2 241660955#10 241660955#11 -41910184" />
    </vehicle>
    <vehicle id="398480" type="pkw" depart="88">
        <route edges="31864804 200818108#0 4999331#0" />
    </vehicle>
    <vehicle id="64479817" type="pkw" depart="89">
        <route edges="31864804 200818108#0 241660955#0 241660955#4 241660955#6 241660955#7 241660955#10 241660955#11 241660955#13 241660955#14 241660955#17" />
    </vehicle>
    <vehicle id="40271747" type="pkw" depart="90">
        <route edges="4045329#5 241660955#10 241660955#11 241660955#13 4145589#0" />
    </vehicle>
    <vehicle id="60370621" type="pkw" depart="90">
        <route edges="241660957#0 -200818108#1 -31864804" />
    </vehicle>
    <vehicle id="92000366" type="pkw" depart="91">
        <route edges="31864804 200818108#0 4999331#0" />
    </vehicle>
    <vehicle id="98628947" type="pkw" depart="91">
        <route edges="-5229966#3 319261593#15 319261593#16 -200818108#1 -31864804" />
    </vehicle>
    <vehicle id="96358763" type="pkw" depart="92">
        <route edges="4045329#5 41910185#0" />
    </vehicle>
    <vehicle id="20190264" type="pkw" depart="93">
        <route edges="-5229966#3 319261593#15 319261593#16 -200818108#1 -31864804" />
    </vehicle>
    <vehicle id="62189854" type="pkw" depart="94">
        <route edges="31864804 200818108#0 4999331#0" />
    </vehicle>
    <vehicle id="37100074" type="pkw" depart="94">
        <route edges="31864804 200818108#0 4145590#0" />
    </vehicle>
    <vehicle id="92325558" type="pkw" depart="95">
        <route edges="-41910185#2 -4045329#5" />
    </vehicle>
    <vehicle id="82216793" type="pkw" depart="98">
        <route edges="31864804 -31864804" />
    </vehicle>
    <vehicle id="75255989" type="pkw" depart="100">
        <route edges="4999334 -241660955#5 -241660955#3 -200818108#1 -31864804" />
    </vehicle>
    <vehicle id="46518709" type="pkw" depart="100">
        <route edges="4999334 -241660955#5 -241660955#3 -200818108#1 -31864804" />
    </vehicle>
    <vehicle id="17010393" type="pkw" depart="101">
        <route edges="-5229966#3 319261593#15 319261593#16 4145590#0" />
    </vehicle>
    <vehicle id="19859076" type="pkw" depart="102">
        <route edges="-130160207#0 241660955#17" />
    </vehicle>
    <vehicle id="94003884" type="pkw" depart="102">
        <route edges="-31800061#0 -41910186" />
    </vehicle>
    <vehicle id="49506789" type="pkw" depart="102">
        <route edges="31864804 200818108#0 241660955#0 241660955#4 -4999334" />
    </vehicle>
    <vehicle id="80370263" type="pkw" depart="103">
        <route edges="241660957#0 4999331#0" />
    </vehicle>
    <vehicle id="76532410" type="pkw" depart="104">
        <route edges="4999334 -241660955#5 -241660955#3 -200818108#1 -31864804" />
    </vehicle>
    <vehicle id="79669973" type="pkw" depart="107">
        <route edges="31864804 200818108#0 241660955#0 241660955#4 241660955#6 4045332#0" />
    </vehicle>
    <vehicle id="96825796" type="pkw" depart="110">
        <route edges="241660957#0 4999331#0" />
    </vehicle>
    <vehicle id="31269832" type="pkw" depart="110">
        <route edges="241660955#4 -241660955#5 -241660955#3 4145590#0" />
    </vehicle>
    <vehicle id="99539668" type="pkw" depart="110">
        <route edges="4045329#5" />
    </vehicle>
    <vehicle id="88700928" type="pkw" depart="111">
        <route edges="31864804 200818108#0 4145590#0" />
    </vehicle>
    <vehicle id="9692672" type="pkw" depart="112">
        <route edges="31864804 200818108#0 241660955#0 241660955#4 -4999334" />
    </vehicle>
    <vehicle id="14639630" type="pkw" depart="113">
        <route edges="31864804 200818108#0 241660955#0 -41910186" />
    </vehicle>
    <vehicle id="33161111" type="pkw" depart="114">
        <route edges="41910186 -241660955#3 -200818108#1 -31864804" />
    </vehicle>
    <vehicle id="80296108" type="pkw" depart="115">
        <route edges="-5229966#3 319261593#15 319261593#16 -200818108#1 -31864804" />
    </vehicle>
    <vehicle id="62280572" type="pkw" depart="117">
        <route edges="-41910185#2 241660955#10 241660955#11 -41910184" />
    </vehicle>
    <vehicle id="91669008" type="pkw" depart="120">
        <route edges="31864804 200818108#0 4145590#0" />
    </vehicle>
    <vehicle id="84893714" type="pkw" depart="120">
        <route edges="-41910185#2 -4045329#5" />
    </vehicle>
    <vehicle id="74434777" type="pkw" depart="123">
        <route edges="-130160207#0 -241660955#16 -241660955#13 -41910184" />
    </vehicle>
    <vehicle id="15849733" type="pkw" depart="124">
        <route edges="-41910185#2 -4045329#5" />
    </vehicle>
    <vehicle id="9903629" type="pkw" depart="125">
        <route edges="241660957#0 241660955#0 241660955#4 241660955#6 241660955#7 41910185#0" />
    </vehicle>
    <vehicle id="56697302" type="pkw" depart="126">
        <route edges="-41910185#2 -4045329#5" />
    </vehicle>
    <vehicle id="74879793" type="pkw" depart="127">
        <route edges="-41910185#2 -4045329#5" />
    </vehicle>
    <vehicle id="49000526" type="pkw" depart="128">
        <route edges="241660957#0 4999331#0" />
    </vehicle>
    <vehicle id="22987901" type="pkw" depart="129">
        <route edges="-130160207#0 241660955#17 -241660955#17 -241660955#16 -241660955#13 -41910184" />
    </vehicle>
    <vehicle id="41867146" type="pkw" depart="130">
        <route edges="241660957#0 4999331#0" />
    </vehicle>
    <vehicle id="91767992" type="pkw" depart="132">
        <route edges="4045329#5 41910185#0" />
    </vehicle>
    <vehicle id="63658388" type="pkw" depart="134">
        <route edges="4045329#5 241660955#10 -4045330" />
    </vehicle>
    <vehicle id="74560755" type="pkw" depart="135">
        <route edges="41910186 31800061#0" />
    </vehicle>
    <vehicle id="57110806" type="pkw" depart="135">
        <route edges="-241660955#17 -241660955#16 -241660955#13 -41910184" />
    </vehicle>
    <vehicle id="37145641" type="pkw" depart="135">
        <route edges="41910186 -241660955#3 4999331#0" />
    </vehicle>
    <vehicle id="79632399" type="pkw" depart="138">
        <route edges="241660957#0 4999331#0" />
    </vehicle>
    <vehicle id="43873521" type="pkw" depart="139">
        <route edges="241660957#0 4999331#0" />
    </vehicle>
    <vehicle id="32945507" type="pkw" depart="141">
        <route edges="-130160207#0 -241660955#16 -241660955#13 -41910184" />
    </vehicle>
    <vehicle id="93418729" type="pkw" depart="142">
        <route edges="241660957#0 4999331#0" />
    </vehicle>
    <vehicle id="69683579" type="pkw" depart="142">
        <route edges="241660955#13 241660955#14 241660955#17" />
    </vehicle>
    <vehicle id="33920788" type="pkw" depart="143">
        <route edges="-31800061#0 -41910186" />
    </vehicle>
    <vehicle id="61662481" type="pkw" depart="144">
        <route edges="41910184 -241660955#12 -241660955#10 -241660955#9 -241660955#6 -241660955#5 -241660955#3 -200818108#1 -31864804" />
    </vehicle>
    <vehicle id="93430853" type="pkw" depart="144">
        <route edges="241660957#0 4999331#0" />
    </vehicle>
    <vehicle id="19144280" type="pkw" depart="146">
        <route edges="241660955#13 -241660955#13 -41910184" />
    </vehicle>
    <vehicle id="72593494" type="pkw" depart="146">
        <route edges="31864804 200818108#0 4145590#0" />
    </vehicle>
    <vehicle id="20946115" type="pkw" depart="148">
        <route edges="241660957#0 4999331#0" />
    </vehicle>
    <vehicle id="55058584" type="pkw" depart="148">
        <route edges="41910186 -241660955#3 4145590#0" />
    </vehicle>
    <vehicle id="90785881" type="pkw" depart="149">
        <route edges="41910184 241660955#13 241660955#14 241660955#17 -241660955#17 -241660955#16 -241660955#13 -241660955#12 241660955#11 241660955#13 241660955#14 241660955#17" />
    </vehicle>
    <vehicle id="42099826" type="pkw" depart="150">
        <route edges="41910186 31800061#0" />
    </vehicle>
    <vehicle id="20485388" type="pkw" depart="154">
        <route edges="41910186 -241660955#3 4145590#0" />
    </vehicle>
    <vehicle id="86766764" type="pkw" depart="154">
        <route edges="241660957#0 4999331#0" />
    </vehicle>
    <vehicle id="43128167" type="pkw" depart="155">
        <route edges="-241660955#17 -241660955#16 -241660955#13 -241660955#12 -241660955#10 -241660955#9 -241660955#6 -241660955#5 -241660955#3 -200818108#1 -31864804" />
    </vehicle>
    <vehicle id="7113856" type="pkw" depart="158">
        <route edges="241660957#0 -200818108#1 -31864804" />
    </vehicle>
    <vehicle id="6311361" type="pkw" depart="160">
        <route edges="-41910185#2 241660955#10 241660955#11 -41910184" />
    </vehicle>
    <vehicle id="63302801" type="pkw" depart="160">
        <route edges="-241660955#17 -241660955#16 -241660955#13 -241660955#12 -241660955#10 -241660955#9 -241660955#6 -241660955#5 -241660955#3 -200818108#1 -31864804" />
    </vehicle>
    <vehicle id="94708210" type="pkw" depart="160">
        <route edges="4045330 241660955#11 -41910184" />
    </vehicle>
    <vehicle id="83061295" type="pkw" depart="160">
        <route edges="-241660955#17 -241660955#16 -241660955#13 -41910184" />
    </vehicle>
    <vehicle id="96587884" type="pkw" depart="160">
        <route edges="-241660955#17 130160207#0 -130160207#0 241660955#17 -241660955#17 -241660955#16 4145589#0" />
    </vehicle>
    <vehicle id="8554871" type="pkw" depart="160">
        <route edges="241660957#0 4999331#0" />
    </vehicle>
    <vehicle id="53825149" type="pkw" depart="161">
        <route edges="241660957#0 4999331#0" />
    </vehicle>
    <vehicle id="64248249" type="pkw" depart="164">
        <route edges="31864804 200818108#0 241660955#0 -41910186" />
    </vehicle>
    <vehicle id="82045686" type="pkw" depart="164">
        <route edges="31864804 -31864804" />
    </vehicle>
    <vehicle id="42488138" type="pkw" depart="167">
        <route edges="241660957#0 241660955#0 -41910186" />
    </vehicle>
    <vehicle id="4752701" type="pkw" depart="168">
        <route edges="41910186 -241660955#3 -200818108#1 -31864804" />
    </vehicle>
    <vehicle id="90708148" type="pkw" depart="168">
        <route edges="-130160207#0 241660955#17" />
    </vehicle>
    <vehicle id="48200688" type="pkw" depart="169">
        <route edges="4999334 -241660955#5 -241660955#3 -200818108#1 -31864804" />
    </vehicle>
    <vehicle id="98494190" type="pkw" depart="171">
        <route edges="4045330 241660955#11 241660955#13 241660955#14 241660955#17" />
    </vehicle>
    <vehicle id="21406533" type="pkw" depart="171">
        <route edges="241660957#0 -200818108#1 -31864804" />
    </vehicle>
    <vehicle id="32925857" type="pkw" depart="173">
        <route edges="4999334 -241660955#5 -241660955#3 -200818108#1 -31864804" />
    </vehicle>
    <vehicle id="96883523" type="pkw" depart="173">
        <route edges="-5229966#3 319261593#15 319261593#16 -200818108#1 -31864804" />
    </vehicle>
    <vehicle id="20322528" type="pkw" depart="174">
        <route edges="-130160207#0 -241660955#16 -241660955#13 -41910184" />
    </vehicle>
    <vehicle id="19907937" type="pkw" depart="176">
        <route edges="241660957#0 -200818108#1 -31864804" />
    </vehicle>
    <vehicle id="45709565" type="pkw" depart="176">
        <route edges="241660957#0 4999331#0" />
    </vehicle>
    <vehicle id="95451264" type="pkw" depart="176">
        <route edges="-241660955#17 -241660955#16 -241660955#13 -41910184" />
    </vehicle>
    <vehicle id="17417206" type="pkw" depart="177">
        <route edges="319261593#12 319261593#15 319261593#16 -200818108#1 -31864804" />
    </vehicle>
    <vehicle id="70413480" type="pkw" depart="178">
        <route edges="319261593#12 319261593#15 319261593#16 4145590#0" />
    </vehicle>
    <vehicle id="31413893" type="pkw" depart="179">
        <route edges="241660957#0 -200818108#1 -31864804" />
    </vehicle>
    <vehicle id="56429429" type="pkw" depart="179">
        <route edges="319261593#12 319261593#15 319261593#16 -200818108#1 -31864804" />
    </vehicle>
    <vehicle id="30039607" type="pkw" depart="180">
        <route edges="-241660955#17 130160207#0" />
    </vehicle>
    <vehicle id="83489421" type="pkw" depart="181">
        <route edges="-5229966#3 319261593#15 8197886#0 -31864804" />
    </vehicle>
    <vehicle id="50406698" type="pkw" depart="182">
        <route edges="-241660955#17 -241660955#16 -241660955#13 -241660955#12 -241660955#10 -241660955#9 -241660955#6 -241660955#5 -241660955#3 -200818108#1 -31864804" />
    </vehicle>
    <vehicle id="78835200" type="pkw" depart="182">
        <route edges="241660957#0 4999331#0" />
    </vehicle>
    <vehicle id="35911482" type="pkw" depart="183">
        <route edges="130160207#0 -130160207#0 241660955#17" />
    </vehicle>
    <vehicle id="98406941" type="pkw" depart="184">
        <route edges="4999334 241660955#6 241660955#7 241660955#10 241660955#11 241660955#13 241660955#14 241660955#17" />
    </vehicle>
    <vehicle id="59567490" type="pkw" depart="184">
        <route edges="241660957#0 4999331#0" />
    </vehicle>
    <vehicle id="44200949" type="pkw" depart="185">
        <route edges="241660957#0 4999331#0" />
    </vehicle>
    <vehicle id="40941006" type="pkw" depart="186">
        <route edges="31864804 200818108#0 4999331#0" />
    </vehicle>
    <vehicle id="39137893" type="pkw" depart="188">
        <route edges="241660957#0 4999331#0" />
    </vehicle>
    <vehicle id="72703266" type="pkw" depart="190">
        <route edges="-130160207#0 -241660955#16 -241660955#13 -41910184" />
    </vehicle>
    <vehicle id="56673511" type="pkw" depart="191">
        <route edges="241660957#0 4999331#0" />
    </vehicle>
    <vehicle id="7989298" type="pkw" depart="191">
        <route edges="41910186 -241660955#3 4145590#0" />
    </vehicle>
    <vehicle id="96520248" type="pkw" depart="193">
        <route edges="-241660955#17 130160207#0" />
    </vehicle>
    <vehicle id="35325414" type="pkw" depart="194">
        <route edges="4045329#5 241660955#10 241660955#11 241660955#13 241660955#14 241660955#17" />
    </vehicle>
    <vehicle id="15219268" type="pkw" depart="195">
        <route edges="41910186 -241660955#3 -200818108#1 -31864804" />
    </vehicle>
    <vehicle id="33291051" type="pkw" depart="198">
        <route edges="31864804 200818108#0 4145590#0" />
    </vehicle>
    <vehicle id="36424293" type="pkw" depart="198">
        <route edges="31864804 200818108#0 241660955#0 241660955#4 241660955#6 241660955#7 241660955#10 241660955#11 -41910184" />
    </vehicle>
    <vehicle id="58850701" type="pkw" depart="202">
        <route edges="31864804 200818108#0 4145590#0" />
    </vehicle>
    <vehicle id="3300682" type="pkw" depart="204">
        <route edges="31864804 200818108#0 4999331#0" />
    </vehicle>
    <vehicle id="57670506" type="pkw" depart="205">
        <route edges="241660957#0 -200818108#1 -31864804" />
    </vehicle>
    <vehicle id="97894740" type="pkw" depart="206">
        <route edges="241660957#0 4999331#0" />
    </vehicle>
    <vehicle id="94344175" type="pkw" depart="207">
        <route edges="130160207#0 -130160207#0 -241660955#16 241660955#14 -241660955#16 -241660955#13 -41910184" />
    </vehicle>
    <vehicle id="50460780" type="pkw" depart="207">
        <route edges="-130160207#0 -241660955#16 -241660955#13 -41910184" />
    </vehicle>
    <vehicle id="30386990" type="pkw" depart="208">
        <route edges="41910186 31800061#0" />
    </vehicle>
    <vehicle id="59930750" type="pkw" depart="208">
        <route edges="241660957#0 -200818108#1 -31864804" />
    </vehicle>
    <vehicle id="79927108" type="pkw" depart="209">
        <route edges="41910186 -241660955#3 -200818108#1 -31864804" />
    </vehicle>
    <vehicle id="34403267" type="pkw" depart="209">
        <route edges="31864804 200818108#0 4145590#0" />
    </vehicle>
    <vehicle id="55520527" type="pkw" depart="209">
        <route edges="41910184 241660955#13 4145589#0" />
    </vehicle>
    <vehicle id="11941461" type="pkw" depart="209">
        <route edges="-5229966#3 319261593#15 319261593#16 4145590#0" />
    </vehicle>
    <vehicle id="74651506" type="pkw" depart="210">
        <route edges="31864804 200818108#0 4999331#0" />
    </vehicle>
    <vehicle id="79297274" type="pkw" depart="210">
        <route edges="31864804 200818108#0 4999331#0" />
    </vehicle>
    <vehicle id="97365875" type="pkw" depart="211">
        <route edges="-41910186 41910186 31800061#0" />
    </vehicle>
    <vehicle id="64565340" type="pkw" depart="213">
        <route edges="241660957#0 4999331#0" />
    </vehicle>
    <vehicle id="42018694" type="pkw" depart="213">
        <route edges="-130160207#0 241660955#17" />
    </vehicle>
    <vehicle id="4083087" type="pkw" depart="214">
        <route edges="319261593#12 319261593#15 319261593#16 4145590#0" />
    </vehicle>
    <vehicle id="38477382" type="pkw" depart="214">
        <route edges="-130160207#0 130160207#0 -130160207#0 -241660955#16 -241660955#13 -241660955#12 241660955#11 241660955#13 241660955#14 241660955#17" />
    </vehicle>
    <vehicle id="30694465" type="pkw" depart="216">
        <route edges="31864804 200818108#0 241660955#0 241660955#4 241660955#6 241660955#7 241660955#10 241660955#11 241660955#13 241660955#14 241660955#17" />
    </vehicle>
    <vehicle id="24783038" type="pkw" depart="216">
        <route edges="31864804 200818108#0 241660955#0 241660955#4 241660955#6 241660955#7 241660955#10 241660955#11 241660955#13 241660955#14 -241660955#16 -241660955#13 -241660955#12 -241660955#10 41910185#0" />
    </vehicle>
    <vehicle id="37725207" type="pkw" depart="217">
        <route edges="31864804 200818108#0 4999331#0" />
    </vehicle>
    <vehicle id="66402799" type="pkw" depart="218">
        <route edges="241660957#0 4999331#0" />
    </vehicle>
    <vehicle id="24132796" type="pkw" depart="218">
        <route edges="319261593#12 319261593#15 319261593#16 241660955#0 241660955#4 241660955#6 241660955#7 241660955#10 241660955#11 241660955#13 241660955#14 241660955#17" />
    </vehicle>
    <vehicle id="58355050" type="pkw" depart="220">
        <route edges="4045329#5 -241660955#9 4045332#0" />
    </vehicle>
    <vehicle id="7609915" type="pkw" depart="223">
        <route edges="-130160207#0 -241660955#16 -241660955#13 -41910184" />
    </vehicle>
    <vehicle id="59631065" type="pkw" depart="223">
        <route edges="4045329#5 -241660955#9 -241660955#6 -241660955#5 -241660955#3 -200818108#1 -31864804" />
    </vehicle>
    <vehicle id="73384991" type="pkw" depart="224">
        <route edges="241660957#0 4999331#0" />
    </vehicle>
    <vehicle id="4955437" type="pkw" depart="225">
        <route edges="-5229966#3 319261593#15 319261593#16 4145590#0" />
    </vehicle>
    <vehicle id="59569177" type="pkw" depart="227">
        <route edges="4045330 241660955#11 -41910184" />
    </vehicle>
    <vehicle id="65976907" type="pkw" depart="229">
        <route edges="-41910185#2 -241660955#9 -241660955#6 -4999334" />
    </vehicle>
    <vehicle id="35674025" type="pkw" depart="230">
        <route edges="-4045329#5" />
    </vehicle>
    <vehicle id="42484781" type="pkw" depart="232">
        <route edges="4045329#5 -241660955#9 4045332#0" />
    </vehicle>
    <vehicle id="91028320" type="pkw" depart="233">
        <route edges="31864804 200818108#0 241660955#0 241660955#4 241660955#6 241660955#7 41910185#0" />
    </vehicle>
    <vehicle id="73742986" type="pkw" depart="233">
        <route edges="-31800061#0 -41910186" />
    </vehicle>
    <vehicle id="55609107" type="pkw" depart="234">
        <route edges="31864804 200818108#0 241660955#0 -241660955#3" />
    </vehicle>
    <vehicle id="40957980" type="pkw" depart="235">